
---------- Begin Simulation Statistics ----------
sim_seconds                                  0.088060                       # Number of seconds simulated
sim_ticks                                 88059796000                       # Number of ticks simulated
final_tick                                88059796000                       # Number of ticks from beginning of simulation (restored from checkpoints and never reset)
sim_freq                                 1000000000000                       # Frequency of simulated ticks
host_inst_rate                                 953543                       # Simulator instruction rate (inst/s)
host_op_rate                                  1570027                       # Simulator op (including micro ops) rate (op/s)
host_tick_rate                             1883141997                       # Simulator tick rate (ticks/s)
host_mem_usage                                 669324                       # Number of bytes of host memory used
host_seconds                                    46.76                       # Real time elapsed on the host
sim_insts                                    44589722                       # Number of instructions simulated
sim_ops                                      73417848                       # Number of ops (including micro ops) simulated
system.voltage_domain.voltage                       1                       # Voltage in Volts
system.clk_domain.clock                          1000                       # Clock period in ticks
system.mem_ctrls.pwrStateResidencyTicks::UNDEFINED  88059796000                       # Cumulative time (in ticks) in various power states
system.mem_ctrls.bytes_read::cpu.inst           22720                       # Number of bytes read from this memory
system.mem_ctrls.bytes_read::cpu.data          414528                       # Number of bytes read from this memory
system.mem_ctrls.bytes_read::total             437248                       # Number of bytes read from this memory
system.mem_ctrls.bytes_inst_read::cpu.inst        22720                       # Number of instructions bytes read from this memory
system.mem_ctrls.bytes_inst_read::total         22720                       # Number of instructions bytes read from this memory
system.mem_ctrls.num_reads::cpu.inst              355                       # Number of read requests responded to by this memory
system.mem_ctrls.num_reads::cpu.data             6477                       # Number of read requests responded to by this memory
system.mem_ctrls.num_reads::total                6832                       # Number of read requests responded to by this memory
system.mem_ctrls.bw_read::cpu.inst             258007                       # Total read bandwidth from this memory (bytes/s)
system.mem_ctrls.bw_read::cpu.data            4707347                       # Total read bandwidth from this memory (bytes/s)
system.mem_ctrls.bw_read::total               4965353                       # Total read bandwidth from this memory (bytes/s)
system.mem_ctrls.bw_inst_read::cpu.inst        258007                       # Instruction read bandwidth from this memory (bytes/s)
system.mem_ctrls.bw_inst_read::total           258007                       # Instruction read bandwidth from this memory (bytes/s)
system.mem_ctrls.bw_total::cpu.inst            258007                       # Total bandwidth to/from this memory (bytes/s)
system.mem_ctrls.bw_total::cpu.data           4707347                       # Total bandwidth to/from this memory (bytes/s)
system.mem_ctrls.bw_total::total              4965353                       # Total bandwidth to/from this memory (bytes/s)
system.pwrStateResidencyTicks::UNDEFINED  88059796000                       # Cumulative time (in ticks) in various power states
system.cpu_voltage_domain.voltage                   1                       # Voltage in Volts
system.cpu_clk_domain.clock                       500                       # Clock period in ticks
system.cpu.dtb.walker.pwrStateResidencyTicks::UNDEFINED  88059796000                       # Cumulative time (in ticks) in various power states
system.cpu.dtb.rdAccesses                    20877749                       # TLB accesses on read requests
system.cpu.dtb.wrAccesses                     5816549                       # TLB accesses on write requests
system.cpu.dtb.rdMisses                           166                       # TLB misses on read requests
system.cpu.dtb.wrMisses                           106                       # TLB misses on write requests
system.cpu.apic_clk_domain.clock                 8000                       # Clock period in ticks
system.cpu.interrupts.pwrStateResidencyTicks::UNDEFINED  88059796000                       # Cumulative time (in ticks) in various power states
system.cpu.itb.walker.pwrStateResidencyTicks::UNDEFINED  88059796000                       # Cumulative time (in ticks) in various power states
system.cpu.itb.rdAccesses                           0                       # TLB accesses on read requests
system.cpu.itb.wrAccesses                    59916919                       # TLB accesses on write requests
system.cpu.itb.rdMisses                             0                       # TLB misses on read requests
system.cpu.itb.wrMisses                            36                       # TLB misses on write requests
system.cpu.workload.numSyscalls                     9                       # Number of system calls
system.cpu.pwrStateResidencyTicks::ON     88059796000                       # Cumulative time (in ticks) in various power states
system.cpu.numCycles                        176119592                       # number of cpu cycles simulated
system.cpu.numWorkItemsStarted                      0                       # number of work items this cpu started
system.cpu.numWorkItemsCompleted                    0                       # number of work items this cpu completed
system.cpu.committedInsts                    44589722                       # Number of instructions committed
system.cpu.committedOps                      73417848                       # Number of ops (including micro ops) committed
system.cpu.num_int_alu_accesses              72895926                       # Number of integer alu accesses
system.cpu.num_fp_alu_accesses                   1975                       # Number of float alu accesses
system.cpu.num_vec_alu_accesses                     0                       # Number of vector alu accesses
system.cpu.num_func_calls                      944900                       # number of times a function call or return occured
system.cpu.num_conditional_control_insts      4232451                       # number of instructions that are conditional controls
system.cpu.num_int_insts                     72895926                       # number of integer instructions
system.cpu.num_fp_insts                          1975                       # number of float instructions
system.cpu.num_vec_insts                            0                       # number of vector instructions
system.cpu.num_int_register_reads           163691591                       # number of times the integer registers were read
system.cpu.num_int_register_writes           63686385                       # number of times the integer registers were written
system.cpu.num_fp_register_reads                 3787                       # number of times the floating registers were read
system.cpu.num_fp_register_writes                1492                       # number of times the floating registers were written
system.cpu.num_vec_register_reads                   0                       # number of times the vector registers were read
system.cpu.num_vec_register_writes                  0                       # number of times the vector registers were written
system.cpu.num_cc_register_reads             27636559                       # number of times the CC registers were read
system.cpu.num_cc_register_writes            24933078                       # number of times the CC registers were written
system.cpu.num_mem_refs                      26694293                       # number of memory refs
system.cpu.num_load_insts                    20877745                       # Number of load instructions
system.cpu.num_store_insts                    5816548                       # Number of store instructions
system.cpu.num_idle_cycles                          0                       # Number of idle cycles
system.cpu.num_busy_cycles                  176119592                       # Number of busy cycles
system.cpu.not_idle_fraction                        1                       # Percentage of non-idle cycles
system.cpu.idle_fraction                            0                       # Percentage of idle cycles
system.cpu.Branches                           5574735                       # Number of branches fetched
system.cpu.op_class::No_OpClass                175844      0.24%      0.24% # Class of executed instruction
system.cpu.op_class::IntAlu                  45543753     62.03%     62.27% # Class of executed instruction
system.cpu.op_class::IntMult                        4      0.00%     62.27% # Class of executed instruction
system.cpu.op_class::IntDiv                   1002994      1.37%     63.64% # Class of executed instruction
system.cpu.op_class::FloatAdd                      10      0.00%     63.64% # Class of executed instruction
system.cpu.op_class::FloatCmp                       0      0.00%     63.64% # Class of executed instruction
system.cpu.op_class::FloatCvt                       0      0.00%     63.64% # Class of executed instruction
system.cpu.op_class::FloatMult                      0      0.00%     63.64% # Class of executed instruction
system.cpu.op_class::FloatMultAcc                   0      0.00%     63.64% # Class of executed instruction
system.cpu.op_class::FloatDiv                       0      0.00%     63.64% # Class of executed instruction
system.cpu.op_class::FloatMisc                      0      0.00%     63.64% # Class of executed instruction
system.cpu.op_class::FloatSqrt                      0      0.00%     63.64% # Class of executed instruction
system.cpu.op_class::SimdAdd                      374      0.00%     63.64% # Class of executed instruction
system.cpu.op_class::SimdAddAcc                     0      0.00%     63.64% # Class of executed instruction
system.cpu.op_class::SimdAlu                       68      0.00%     63.64% # Class of executed instruction
system.cpu.op_class::SimdCmp                        0      0.00%     63.64% # Class of executed instruction
system.cpu.op_class::SimdCvt                      108      0.00%     63.64% # Class of executed instruction
system.cpu.op_class::SimdMisc                     214      0.00%     63.64% # Class of executed instruction
system.cpu.op_class::SimdMult                       0      0.00%     63.64% # Class of executed instruction
system.cpu.op_class::SimdMultAcc                    0      0.00%     63.64% # Class of executed instruction
system.cpu.op_class::SimdShift                    186      0.00%     63.64% # Class of executed instruction
system.cpu.op_class::SimdShiftAcc                   0      0.00%     63.64% # Class of executed instruction
system.cpu.op_class::SimdSqrt                       0      0.00%     63.64% # Class of executed instruction
system.cpu.op_class::SimdFloatAdd                   0      0.00%     63.64% # Class of executed instruction
system.cpu.op_class::SimdFloatAlu                   0      0.00%     63.64% # Class of executed instruction
system.cpu.op_class::SimdFloatCmp                   0      0.00%     63.64% # Class of executed instruction
system.cpu.op_class::SimdFloatCvt                   0      0.00%     63.64% # Class of executed instruction
system.cpu.op_class::SimdFloatDiv                   0      0.00%     63.64% # Class of executed instruction
system.cpu.op_class::SimdFloatMisc                  0      0.00%     63.64% # Class of executed instruction
system.cpu.op_class::SimdFloatMult                  0      0.00%     63.64% # Class of executed instruction
system.cpu.op_class::SimdFloatMultAcc               0      0.00%     63.64% # Class of executed instruction
system.cpu.op_class::SimdFloatSqrt                  0      0.00%     63.64% # Class of executed instruction
system.cpu.op_class::MemRead                 20877677     28.44%     92.08% # Class of executed instruction
system.cpu.op_class::MemWrite                 5816113      7.92%    100.00% # Class of executed instruction
system.cpu.op_class::FloatMemRead                  68      0.00%    100.00% # Class of executed instruction
system.cpu.op_class::FloatMemWrite                435      0.00%    100.00% # Class of executed instruction
system.cpu.op_class::IprAccess                      0      0.00%    100.00% # Class of executed instruction
system.cpu.op_class::InstPrefetch                   0      0.00%    100.00% # Class of executed instruction
system.cpu.op_class::total                   73417848                       # Class of executed instruction
system.cpu.dcache.tags.pwrStateResidencyTicks::UNDEFINED  88059796000                       # Cumulative time (in ticks) in various power states
system.cpu.dcache.tags.tagsinuse           509.951303                       # Cycle average of tags in use
system.cpu.dcache.tags.total_refs            26694298                       # Total number of references to valid blocks.
system.cpu.dcache.tags.sampled_refs             45427                       # Sample count of references to valid blocks.
system.cpu.dcache.tags.avg_refs            587.630660                       # Average number of references to valid blocks.
system.cpu.dcache.tags.warmup_cycle            765000                       # Cycle when the warmup percentage was hit.
system.cpu.dcache.tags.occ_blocks::cpu.data   509.951303                       # Average occupied blocks per requestor
system.cpu.dcache.tags.occ_percent::cpu.data     0.995999                       # Average percentage of cache occupancy
system.cpu.dcache.tags.occ_percent::total     0.995999                       # Average percentage of cache occupancy
system.cpu.dcache.tags.occ_task_id_blocks::1024          512                       # Occupied blocks per task id
system.cpu.dcache.tags.age_task_id_blocks_1024::0           27                       # Occupied blocks per task id
system.cpu.dcache.tags.age_task_id_blocks_1024::2           33                       # Occupied blocks per task id
system.cpu.dcache.tags.age_task_id_blocks_1024::3          450                       # Occupied blocks per task id
system.cpu.dcache.tags.age_task_id_blocks_1024::4            2                       # Occupied blocks per task id
system.cpu.dcache.tags.occ_task_id_percent::1024            1                       # Percentage of cache occupancy per task id
system.cpu.dcache.tags.tag_accesses          53434023                       # Number of tag accesses
system.cpu.dcache.tags.data_accesses         53434023                       # Number of data accesses
system.cpu.dcache.pwrStateResidencyTicks::UNDEFINED  88059796000                       # Cumulative time (in ticks) in various power states
system.cpu.dcache.ReadReq_hits::cpu.data     20839020                       # number of ReadReq hits
system.cpu.dcache.ReadReq_hits::total        20839020                       # number of ReadReq hits
system.cpu.dcache.WriteReq_hits::cpu.data      5793860                       # number of WriteReq hits
system.cpu.dcache.WriteReq_hits::total        5793860                       # number of WriteReq hits
system.cpu.dcache.demand_hits::cpu.data      26632880                       # number of demand (read+write) hits
system.cpu.dcache.demand_hits::total         26632880                       # number of demand (read+write) hits
system.cpu.dcache.overall_hits::cpu.data     26632880                       # number of overall hits
system.cpu.dcache.overall_hits::total        26632880                       # number of overall hits
system.cpu.dcache.ReadReq_misses::cpu.data        38729                       # number of ReadReq misses
system.cpu.dcache.ReadReq_misses::total         38729                       # number of ReadReq misses
system.cpu.dcache.WriteReq_misses::cpu.data        22689                       # number of WriteReq misses
system.cpu.dcache.WriteReq_misses::total        22689                       # number of WriteReq misses
system.cpu.dcache.demand_misses::cpu.data        61418                       # number of demand (read+write) misses
system.cpu.dcache.demand_misses::total          61418                       # number of demand (read+write) misses
system.cpu.dcache.overall_misses::cpu.data        61418                       # number of overall misses
system.cpu.dcache.overall_misses::total         61418                       # number of overall misses
system.cpu.dcache.ReadReq_miss_latency::cpu.data    885637000                       # number of ReadReq miss cycles
system.cpu.dcache.ReadReq_miss_latency::total    885637000                       # number of ReadReq miss cycles
system.cpu.dcache.WriteReq_miss_latency::cpu.data    569433500                       # number of WriteReq miss cycles
system.cpu.dcache.WriteReq_miss_latency::total    569433500                       # number of WriteReq miss cycles
system.cpu.dcache.demand_miss_latency::cpu.data   1455070500                       # number of demand (read+write) miss cycles
system.cpu.dcache.demand_miss_latency::total   1455070500                       # number of demand (read+write) miss cycles
system.cpu.dcache.overall_miss_latency::cpu.data   1455070500                       # number of overall miss cycles
system.cpu.dcache.overall_miss_latency::total   1455070500                       # number of overall miss cycles
system.cpu.dcache.ReadReq_accesses::cpu.data     20877749                       # number of ReadReq accesses(hits+misses)
system.cpu.dcache.ReadReq_accesses::total     20877749                       # number of ReadReq accesses(hits+misses)
system.cpu.dcache.WriteReq_accesses::cpu.data      5816549                       # number of WriteReq accesses(hits+misses)
system.cpu.dcache.WriteReq_accesses::total      5816549                       # number of WriteReq accesses(hits+misses)
system.cpu.dcache.demand_accesses::cpu.data     26694298                       # number of demand (read+write) accesses
system.cpu.dcache.demand_accesses::total     26694298                       # number of demand (read+write) accesses
system.cpu.dcache.overall_accesses::cpu.data     26694298                       # number of overall (read+write) accesses
system.cpu.dcache.overall_accesses::total     26694298                       # number of overall (read+write) accesses
system.cpu.dcache.ReadReq_miss_rate::cpu.data     0.001855                       # miss rate for ReadReq accesses
system.cpu.dcache.ReadReq_miss_rate::total     0.001855                       # miss rate for ReadReq accesses
system.cpu.dcache.WriteReq_miss_rate::cpu.data     0.003901                       # miss rate for WriteReq accesses
system.cpu.dcache.WriteReq_miss_rate::total     0.003901                       # miss rate for WriteReq accesses
system.cpu.dcache.demand_miss_rate::cpu.data     0.002301                       # miss rate for demand accesses
system.cpu.dcache.demand_miss_rate::total     0.002301                       # miss rate for demand accesses
system.cpu.dcache.overall_miss_rate::cpu.data     0.002301                       # miss rate for overall accesses
system.cpu.dcache.overall_miss_rate::total     0.002301                       # miss rate for overall accesses
system.cpu.dcache.ReadReq_avg_miss_latency::cpu.data 22867.541119                       # average ReadReq miss latency
system.cpu.dcache.ReadReq_avg_miss_latency::total 22867.541119                       # average ReadReq miss latency
system.cpu.dcache.WriteReq_avg_miss_latency::cpu.data 25097.337917                       # average WriteReq miss latency
system.cpu.dcache.WriteReq_avg_miss_latency::total 25097.337917                       # average WriteReq miss latency
system.cpu.dcache.demand_avg_miss_latency::cpu.data 23691.271289                       # average overall miss latency
system.cpu.dcache.demand_avg_miss_latency::total 23691.271289                       # average overall miss latency
system.cpu.dcache.overall_avg_miss_latency::cpu.data 23691.271289                       # average overall miss latency
system.cpu.dcache.overall_avg_miss_latency::total 23691.271289                       # average overall miss latency
system.cpu.dcache.blocked_cycles::no_mshrs            0                       # number of cycles access was blocked
system.cpu.dcache.blocked_cycles::no_targets            0                       # number of cycles access was blocked
system.cpu.dcache.blocked::no_mshrs                 0                       # number of cycles access was blocked
system.cpu.dcache.blocked::no_targets               0                       # number of cycles access was blocked
system.cpu.dcache.avg_blocked_cycles::no_mshrs          nan                       # average number of cycles each access was blocked
system.cpu.dcache.avg_blocked_cycles::no_targets          nan                       # average number of cycles each access was blocked
system.cpu.dcache.writebacks::writebacks        43578                       # number of writebacks
system.cpu.dcache.writebacks::total             43578                       # number of writebacks
system.cpu.dcache.ReadReq_mshr_misses::cpu.data        38729                       # number of ReadReq MSHR misses
system.cpu.dcache.ReadReq_mshr_misses::total        38729                       # number of ReadReq MSHR misses
system.cpu.dcache.WriteReq_mshr_misses::cpu.data        22689                       # number of WriteReq MSHR misses
system.cpu.dcache.WriteReq_mshr_misses::total        22689                       # number of WriteReq MSHR misses
system.cpu.dcache.demand_mshr_misses::cpu.data        61418                       # number of demand (read+write) MSHR misses
system.cpu.dcache.demand_mshr_misses::total        61418                       # number of demand (read+write) MSHR misses
system.cpu.dcache.overall_mshr_misses::cpu.data        61418                       # number of overall MSHR misses
system.cpu.dcache.overall_mshr_misses::total        61418                       # number of overall MSHR misses
system.cpu.dcache.ReadReq_mshr_miss_latency::cpu.data    846908000                       # number of ReadReq MSHR miss cycles
system.cpu.dcache.ReadReq_mshr_miss_latency::total    846908000                       # number of ReadReq MSHR miss cycles
system.cpu.dcache.WriteReq_mshr_miss_latency::cpu.data    546744500                       # number of WriteReq MSHR miss cycles
system.cpu.dcache.WriteReq_mshr_miss_latency::total    546744500                       # number of WriteReq MSHR miss cycles
system.cpu.dcache.demand_mshr_miss_latency::cpu.data   1393652500                       # number of demand (read+write) MSHR miss cycles
system.cpu.dcache.demand_mshr_miss_latency::total   1393652500                       # number of demand (read+write) MSHR miss cycles
system.cpu.dcache.overall_mshr_miss_latency::cpu.data   1393652500                       # number of overall MSHR miss cycles
system.cpu.dcache.overall_mshr_miss_latency::total   1393652500                       # number of overall MSHR miss cycles
system.cpu.dcache.ReadReq_mshr_miss_rate::cpu.data     0.001855                       # mshr miss rate for ReadReq accesses
system.cpu.dcache.ReadReq_mshr_miss_rate::total     0.001855                       # mshr miss rate for ReadReq accesses
system.cpu.dcache.WriteReq_mshr_miss_rate::cpu.data     0.003901                       # mshr miss rate for WriteReq accesses
system.cpu.dcache.WriteReq_mshr_miss_rate::total     0.003901                       # mshr miss rate for WriteReq accesses
system.cpu.dcache.demand_mshr_miss_rate::cpu.data     0.002301                       # mshr miss rate for demand accesses
system.cpu.dcache.demand_mshr_miss_rate::total     0.002301                       # mshr miss rate for demand accesses
system.cpu.dcache.overall_mshr_miss_rate::cpu.data     0.002301                       # mshr miss rate for overall accesses
system.cpu.dcache.overall_mshr_miss_rate::total     0.002301                       # mshr miss rate for overall accesses
system.cpu.dcache.ReadReq_avg_mshr_miss_latency::cpu.data 21867.541119                       # average ReadReq mshr miss latency
system.cpu.dcache.ReadReq_avg_mshr_miss_latency::total 21867.541119                       # average ReadReq mshr miss latency
system.cpu.dcache.WriteReq_avg_mshr_miss_latency::cpu.data 24097.337917                       # average WriteReq mshr miss latency
system.cpu.dcache.WriteReq_avg_mshr_miss_latency::total 24097.337917                       # average WriteReq mshr miss latency
system.cpu.dcache.demand_avg_mshr_miss_latency::cpu.data 22691.271289                       # average overall mshr miss latency
system.cpu.dcache.demand_avg_mshr_miss_latency::total 22691.271289                       # average overall mshr miss latency
system.cpu.dcache.overall_avg_mshr_miss_latency::cpu.data 22691.271289                       # average overall mshr miss latency
system.cpu.dcache.overall_avg_mshr_miss_latency::total 22691.271289                       # average overall mshr miss latency
system.cpu.dcache.replacements                  44915                       # number of replacements
system.cpu.dtb_walker_cache.tags.pwrStateResidencyTicks::UNDEFINED  88059796000                       # Cumulative time (in ticks) in various power states
system.cpu.dtb_walker_cache.tags.tagsinuse            0                       # Cycle average of tags in use
system.cpu.dtb_walker_cache.tags.total_refs            0                       # Total number of references to valid blocks.
system.cpu.dtb_walker_cache.tags.sampled_refs            0                       # Sample count of references to valid blocks.
system.cpu.dtb_walker_cache.tags.avg_refs          nan                       # Average number of references to valid blocks.
system.cpu.dtb_walker_cache.tags.warmup_cycle            0                       # Cycle when the warmup percentage was hit.
system.cpu.dtb_walker_cache.tags.tag_accesses            0                       # Number of tag accesses
system.cpu.dtb_walker_cache.tags.data_accesses            0                       # Number of data accesses
system.cpu.dtb_walker_cache.pwrStateResidencyTicks::UNDEFINED  88059796000                       # Cumulative time (in ticks) in various power states
system.cpu.dtb_walker_cache.blocked_cycles::no_mshrs            0                       # number of cycles access was blocked
system.cpu.dtb_walker_cache.blocked_cycles::no_targets            0                       # number of cycles access was blocked
system.cpu.dtb_walker_cache.blocked::no_mshrs            0                       # number of cycles access was blocked
system.cpu.dtb_walker_cache.blocked::no_targets            0                       # number of cycles access was blocked
system.cpu.dtb_walker_cache.avg_blocked_cycles::no_mshrs          nan                       # average number of cycles each access was blocked
system.cpu.dtb_walker_cache.avg_blocked_cycles::no_targets          nan                       # average number of cycles each access was blocked
system.cpu.dtb_walker_cache.replacements            0                       # number of replacements
system.cpu.icache.tags.pwrStateResidencyTicks::UNDEFINED  88059796000                       # Cumulative time (in ticks) in various power states
system.cpu.icache.tags.tagsinuse           280.277125                       # Cycle average of tags in use
system.cpu.icache.tags.total_refs            59916919                       # Total number of references to valid blocks.
system.cpu.icache.tags.sampled_refs               355                       # Sample count of references to valid blocks.
system.cpu.icache.tags.avg_refs          168780.053521                       # Average number of references to valid blocks.
system.cpu.icache.tags.warmup_cycle            445000                       # Cycle when the warmup percentage was hit.
system.cpu.icache.tags.occ_blocks::cpu.inst   280.277125                       # Average occupied blocks per requestor
system.cpu.icache.tags.occ_percent::cpu.inst     0.547416                       # Average percentage of cache occupancy
system.cpu.icache.tags.occ_percent::total     0.547416                       # Average percentage of cache occupancy
system.cpu.icache.tags.occ_task_id_blocks::1024          309                       # Occupied blocks per task id
system.cpu.icache.tags.age_task_id_blocks_1024::0           38                       # Occupied blocks per task id
system.cpu.icache.tags.age_task_id_blocks_1024::4          271                       # Occupied blocks per task id
system.cpu.icache.tags.occ_task_id_percent::1024     0.603516                       # Percentage of cache occupancy per task id
system.cpu.icache.tags.tag_accesses         119834193                       # Number of tag accesses
system.cpu.icache.tags.data_accesses        119834193                       # Number of data accesses
system.cpu.icache.pwrStateResidencyTicks::UNDEFINED  88059796000                       # Cumulative time (in ticks) in various power states
system.cpu.icache.ReadReq_hits::cpu.inst     59916564                       # number of ReadReq hits
system.cpu.icache.ReadReq_hits::total        59916564                       # number of ReadReq hits
system.cpu.icache.demand_hits::cpu.inst      59916564                       # number of demand (read+write) hits
system.cpu.icache.demand_hits::total         59916564                       # number of demand (read+write) hits
system.cpu.icache.overall_hits::cpu.inst     59916564                       # number of overall hits
system.cpu.icache.overall_hits::total        59916564                       # number of overall hits
system.cpu.icache.ReadReq_misses::cpu.inst          355                       # number of ReadReq misses
system.cpu.icache.ReadReq_misses::total           355                       # number of ReadReq misses
system.cpu.icache.demand_misses::cpu.inst          355                       # number of demand (read+write) misses
system.cpu.icache.demand_misses::total            355                       # number of demand (read+write) misses
system.cpu.icache.overall_misses::cpu.inst          355                       # number of overall misses
system.cpu.icache.overall_misses::total           355                       # number of overall misses
system.cpu.icache.ReadReq_miss_latency::cpu.inst     55285500                       # number of ReadReq miss cycles
system.cpu.icache.ReadReq_miss_latency::total     55285500                       # number of ReadReq miss cycles
system.cpu.icache.demand_miss_latency::cpu.inst     55285500                       # number of demand (read+write) miss cycles
system.cpu.icache.demand_miss_latency::total     55285500                       # number of demand (read+write) miss cycles
system.cpu.icache.overall_miss_latency::cpu.inst     55285500                       # number of overall miss cycles
system.cpu.icache.overall_miss_latency::total     55285500                       # number of overall miss cycles
system.cpu.icache.ReadReq_accesses::cpu.inst     59916919                       # number of ReadReq accesses(hits+misses)
system.cpu.icache.ReadReq_accesses::total     59916919                       # number of ReadReq accesses(hits+misses)
system.cpu.icache.demand_accesses::cpu.inst     59916919                       # number of demand (read+write) accesses
system.cpu.icache.demand_accesses::total     59916919                       # number of demand (read+write) accesses
system.cpu.icache.overall_accesses::cpu.inst     59916919                       # number of overall (read+write) accesses
system.cpu.icache.overall_accesses::total     59916919                       # number of overall (read+write) accesses
system.cpu.icache.ReadReq_miss_rate::cpu.inst     0.000006                       # miss rate for ReadReq accesses
system.cpu.icache.ReadReq_miss_rate::total     0.000006                       # miss rate for ReadReq accesses
system.cpu.icache.demand_miss_rate::cpu.inst     0.000006                       # miss rate for demand accesses
system.cpu.icache.demand_miss_rate::total     0.000006                       # miss rate for demand accesses
system.cpu.icache.overall_miss_rate::cpu.inst     0.000006                       # miss rate for overall accesses
system.cpu.icache.overall_miss_rate::total     0.000006                       # miss rate for overall accesses
system.cpu.icache.ReadReq_avg_miss_latency::cpu.inst 155733.802817                       # average ReadReq miss latency
system.cpu.icache.ReadReq_avg_miss_latency::total 155733.802817                       # average ReadReq miss latency
system.cpu.icache.demand_avg_miss_latency::cpu.inst 155733.802817                       # average overall miss latency
system.cpu.icache.demand_avg_miss_latency::total 155733.802817                       # average overall miss latency
system.cpu.icache.overall_avg_miss_latency::cpu.inst 155733.802817                       # average overall miss latency
system.cpu.icache.overall_avg_miss_latency::total 155733.802817                       # average overall miss latency
system.cpu.icache.blocked_cycles::no_mshrs            0                       # number of cycles access was blocked
system.cpu.icache.blocked_cycles::no_targets            0                       # number of cycles access was blocked
system.cpu.icache.blocked::no_mshrs                 0                       # number of cycles access was blocked
system.cpu.icache.blocked::no_targets               0                       # number of cycles access was blocked
system.cpu.icache.avg_blocked_cycles::no_mshrs          nan                       # average number of cycles each access was blocked
system.cpu.icache.avg_blocked_cycles::no_targets          nan                       # average number of cycles each access was blocked
system.cpu.icache.writebacks::writebacks           46                       # number of writebacks
system.cpu.icache.writebacks::total                46                       # number of writebacks
system.cpu.icache.ReadReq_mshr_misses::cpu.inst          355                       # number of ReadReq MSHR misses
system.cpu.icache.ReadReq_mshr_misses::total          355                       # number of ReadReq MSHR misses
system.cpu.icache.demand_mshr_misses::cpu.inst          355                       # number of demand (read+write) MSHR misses
system.cpu.icache.demand_mshr_misses::total          355                       # number of demand (read+write) MSHR misses
system.cpu.icache.overall_mshr_misses::cpu.inst          355                       # number of overall MSHR misses
system.cpu.icache.overall_mshr_misses::total          355                       # number of overall MSHR misses
system.cpu.icache.ReadReq_mshr_miss_latency::cpu.inst     54930500                       # number of ReadReq MSHR miss cycles
system.cpu.icache.ReadReq_mshr_miss_latency::total     54930500                       # number of ReadReq MSHR miss cycles
system.cpu.icache.demand_mshr_miss_latency::cpu.inst     54930500                       # number of demand (read+write) MSHR miss cycles
system.cpu.icache.demand_mshr_miss_latency::total     54930500                       # number of demand (read+write) MSHR miss cycles
system.cpu.icache.overall_mshr_miss_latency::cpu.inst     54930500                       # number of overall MSHR miss cycles
system.cpu.icache.overall_mshr_miss_latency::total     54930500                       # number of overall MSHR miss cycles
system.cpu.icache.ReadReq_mshr_miss_rate::cpu.inst     0.000006                       # mshr miss rate for ReadReq accesses
system.cpu.icache.ReadReq_mshr_miss_rate::total     0.000006                       # mshr miss rate for ReadReq accesses
system.cpu.icache.demand_mshr_miss_rate::cpu.inst     0.000006                       # mshr miss rate for demand accesses
system.cpu.icache.demand_mshr_miss_rate::total     0.000006                       # mshr miss rate for demand accesses
system.cpu.icache.overall_mshr_miss_rate::cpu.inst     0.000006                       # mshr miss rate for overall accesses
system.cpu.icache.overall_mshr_miss_rate::total     0.000006                       # mshr miss rate for overall accesses
system.cpu.icache.ReadReq_avg_mshr_miss_latency::cpu.inst 154733.802817                       # average ReadReq mshr miss latency
system.cpu.icache.ReadReq_avg_mshr_miss_latency::total 154733.802817                       # average ReadReq mshr miss latency
system.cpu.icache.demand_avg_mshr_miss_latency::cpu.inst 154733.802817                       # average overall mshr miss latency
system.cpu.icache.demand_avg_mshr_miss_latency::total 154733.802817                       # average overall mshr miss latency
system.cpu.icache.overall_avg_mshr_miss_latency::cpu.inst 154733.802817                       # average overall mshr miss latency
system.cpu.icache.overall_avg_mshr_miss_latency::total 154733.802817                       # average overall mshr miss latency
system.cpu.icache.replacements                     46                       # number of replacements
system.cpu.itb_walker_cache.tags.pwrStateResidencyTicks::UNDEFINED  88059796000                       # Cumulative time (in ticks) in various power states
system.cpu.itb_walker_cache.tags.tagsinuse            0                       # Cycle average of tags in use
system.cpu.itb_walker_cache.tags.total_refs            0                       # Total number of references to valid blocks.
system.cpu.itb_walker_cache.tags.sampled_refs            0                       # Sample count of references to valid blocks.
system.cpu.itb_walker_cache.tags.avg_refs          nan                       # Average number of references to valid blocks.
system.cpu.itb_walker_cache.tags.warmup_cycle            0                       # Cycle when the warmup percentage was hit.
system.cpu.itb_walker_cache.tags.tag_accesses            0                       # Number of tag accesses
system.cpu.itb_walker_cache.tags.data_accesses            0                       # Number of data accesses
system.cpu.itb_walker_cache.pwrStateResidencyTicks::UNDEFINED  88059796000                       # Cumulative time (in ticks) in various power states
system.cpu.itb_walker_cache.blocked_cycles::no_mshrs            0                       # number of cycles access was blocked
system.cpu.itb_walker_cache.blocked_cycles::no_targets            0                       # number of cycles access was blocked
system.cpu.itb_walker_cache.blocked::no_mshrs            0                       # number of cycles access was blocked
system.cpu.itb_walker_cache.blocked::no_targets            0                       # number of cycles access was blocked
system.cpu.itb_walker_cache.avg_blocked_cycles::no_mshrs          nan                       # average number of cycles each access was blocked
system.cpu.itb_walker_cache.avg_blocked_cycles::no_targets          nan                       # average number of cycles each access was blocked
system.cpu.itb_walker_cache.replacements            0                       # number of replacements
system.l2.tags.pwrStateResidencyTicks::UNDEFINED  88059796000                       # Cumulative time (in ticks) in various power states
system.l2.tags.tagsinuse                  2017.991654                       # Cycle average of tags in use
system.l2.tags.total_refs                      106734                       # Total number of references to valid blocks.
system.l2.tags.sampled_refs                     24188                       # Sample count of references to valid blocks.
system.l2.tags.avg_refs                      4.412684                       # Average number of references to valid blocks.
system.l2.tags.warmup_cycle                    434500                       # Cycle when the warmup percentage was hit.
system.l2.tags.occ_blocks::writebacks        1.430254                       # Average occupied blocks per requestor
system.l2.tags.occ_blocks::cpu.inst         11.538391                       # Average occupied blocks per requestor
system.l2.tags.occ_blocks::cpu.data       2005.023009                       # Average occupied blocks per requestor
system.l2.tags.occ_percent::writebacks       0.000698                       # Average percentage of cache occupancy
system.l2.tags.occ_percent::cpu.inst         0.005634                       # Average percentage of cache occupancy
system.l2.tags.occ_percent::cpu.data         0.979015                       # Average percentage of cache occupancy
system.l2.tags.occ_percent::total            0.985347                       # Average percentage of cache occupancy
system.l2.tags.occ_task_id_blocks::1024          2048                       # Occupied blocks per task id
system.l2.tags.age_task_id_blocks_1024::0           74                       # Occupied blocks per task id
system.l2.tags.age_task_id_blocks_1024::2           33                       # Occupied blocks per task id
system.l2.tags.age_task_id_blocks_1024::3           59                       # Occupied blocks per task id
system.l2.tags.age_task_id_blocks_1024::4         1882                       # Occupied blocks per task id
system.l2.tags.occ_task_id_percent::1024            1                       # Percentage of cache occupancy per task id
system.l2.tags.tag_accesses                    878060                       # Number of tag accesses
system.l2.tags.data_accesses                   878060                       # Number of data accesses
system.l2.pwrStateResidencyTicks::UNDEFINED  88059796000                       # Cumulative time (in ticks) in various power states
system.l2.WritebackDirty_hits::writebacks        43578                       # number of WritebackDirty hits
system.l2.WritebackDirty_hits::total            43578                       # number of WritebackDirty hits
system.l2.WritebackClean_hits::writebacks           46                       # number of WritebackClean hits
system.l2.WritebackClean_hits::total               46                       # number of WritebackClean hits
system.l2.UpgradeReq_hits::cpu.data             15991                       # number of UpgradeReq hits
system.l2.UpgradeReq_hits::total                15991                       # number of UpgradeReq hits
system.l2.ReadExReq_hits::cpu.data                259                       # number of ReadExReq hits
system.l2.ReadExReq_hits::total                   259                       # number of ReadExReq hits
system.l2.ReadSharedReq_hits::cpu.data          21359                       # number of ReadSharedReq hits
system.l2.ReadSharedReq_hits::total             21359                       # number of ReadSharedReq hits
system.l2.demand_hits::cpu.data                 21618                       # number of demand (read+write) hits
system.l2.demand_hits::total                    21618                       # number of demand (read+write) hits
system.l2.overall_hits::cpu.data                21618                       # number of overall hits
system.l2.overall_hits::total                   21618                       # number of overall hits
system.l2.ReadExReq_misses::cpu.data             6439                       # number of ReadExReq misses
system.l2.ReadExReq_misses::total                6439                       # number of ReadExReq misses
system.l2.ReadCleanReq_misses::cpu.inst           355                       # number of ReadCleanReq misses
system.l2.ReadCleanReq_misses::total              355                       # number of ReadCleanReq misses
system.l2.ReadSharedReq_misses::cpu.data        17370                       # number of ReadSharedReq misses
system.l2.ReadSharedReq_misses::total           17370                       # number of ReadSharedReq misses
system.l2.demand_misses::cpu.inst                 355                       # number of demand (read+write) misses
system.l2.demand_misses::cpu.data               23809                       # number of demand (read+write) misses
system.l2.demand_misses::total                  24164                       # number of demand (read+write) misses
system.l2.overall_misses::cpu.inst                355                       # number of overall misses
system.l2.overall_misses::cpu.data              23809                       # number of overall misses
system.l2.overall_misses::total                 24164                       # number of overall misses
system.l2.ReadExReq_miss_latency::cpu.data    342084500                       # number of ReadExReq miss cycles
system.l2.ReadExReq_miss_latency::total     342084500                       # number of ReadExReq miss cycles
system.l2.ReadCleanReq_miss_latency::cpu.inst     54396000                       # number of ReadCleanReq miss cycles
system.l2.ReadCleanReq_miss_latency::total     54396000                       # number of ReadCleanReq miss cycles
system.l2.ReadSharedReq_miss_latency::cpu.data    564544500                       # number of ReadSharedReq miss cycles
system.l2.ReadSharedReq_miss_latency::total    564544500                       # number of ReadSharedReq miss cycles
system.l2.demand_miss_latency::cpu.inst      54396000                       # number of demand (read+write) miss cycles
system.l2.demand_miss_latency::cpu.data     906629000                       # number of demand (read+write) miss cycles
system.l2.demand_miss_latency::total        961025000                       # number of demand (read+write) miss cycles
system.l2.overall_miss_latency::cpu.inst     54396000                       # number of overall miss cycles
system.l2.overall_miss_latency::cpu.data    906629000                       # number of overall miss cycles
system.l2.overall_miss_latency::total       961025000                       # number of overall miss cycles
system.l2.WritebackDirty_accesses::writebacks        43578                       # number of WritebackDirty accesses(hits+misses)
system.l2.WritebackDirty_accesses::total        43578                       # number of WritebackDirty accesses(hits+misses)
system.l2.WritebackClean_accesses::writebacks           46                       # number of WritebackClean accesses(hits+misses)
system.l2.WritebackClean_accesses::total           46                       # number of WritebackClean accesses(hits+misses)
system.l2.UpgradeReq_accesses::cpu.data         15991                       # number of UpgradeReq accesses(hits+misses)
system.l2.UpgradeReq_accesses::total            15991                       # number of UpgradeReq accesses(hits+misses)
system.l2.ReadExReq_accesses::cpu.data           6698                       # number of ReadExReq accesses(hits+misses)
system.l2.ReadExReq_accesses::total              6698                       # number of ReadExReq accesses(hits+misses)
system.l2.ReadCleanReq_accesses::cpu.inst          355                       # number of ReadCleanReq accesses(hits+misses)
system.l2.ReadCleanReq_accesses::total            355                       # number of ReadCleanReq accesses(hits+misses)
system.l2.ReadSharedReq_accesses::cpu.data        38729                       # number of ReadSharedReq accesses(hits+misses)
system.l2.ReadSharedReq_accesses::total         38729                       # number of ReadSharedReq accesses(hits+misses)
system.l2.demand_accesses::cpu.inst               355                       # number of demand (read+write) accesses
system.l2.demand_accesses::cpu.data             45427                       # number of demand (read+write) accesses
system.l2.demand_accesses::total                45782                       # number of demand (read+write) accesses
system.l2.overall_accesses::cpu.inst              355                       # number of overall (read+write) accesses
system.l2.overall_accesses::cpu.data            45427                       # number of overall (read+write) accesses
system.l2.overall_accesses::total               45782                       # number of overall (read+write) accesses
system.l2.ReadExReq_miss_rate::cpu.data      0.961332                       # miss rate for ReadExReq accesses
system.l2.ReadExReq_miss_rate::total         0.961332                       # miss rate for ReadExReq accesses
system.l2.ReadCleanReq_miss_rate::cpu.inst            1                       # miss rate for ReadCleanReq accesses
system.l2.ReadCleanReq_miss_rate::total             1                       # miss rate for ReadCleanReq accesses
system.l2.ReadSharedReq_miss_rate::cpu.data     0.448501                       # miss rate for ReadSharedReq accesses
system.l2.ReadSharedReq_miss_rate::total     0.448501                       # miss rate for ReadSharedReq accesses
system.l2.demand_miss_rate::cpu.inst                1                       # miss rate for demand accesses
system.l2.demand_miss_rate::cpu.data         0.524116                       # miss rate for demand accesses
system.l2.demand_miss_rate::total            0.527806                       # miss rate for demand accesses
system.l2.overall_miss_rate::cpu.inst               1                       # miss rate for overall accesses
system.l2.overall_miss_rate::cpu.data        0.524116                       # miss rate for overall accesses
system.l2.overall_miss_rate::total           0.527806                       # miss rate for overall accesses
system.l2.ReadExReq_avg_miss_latency::cpu.data 53126.960708                       # average ReadExReq miss latency
system.l2.ReadExReq_avg_miss_latency::total 53126.960708                       # average ReadExReq miss latency
system.l2.ReadCleanReq_avg_miss_latency::cpu.inst 153228.169014                       # average ReadCleanReq miss latency
system.l2.ReadCleanReq_avg_miss_latency::total 153228.169014                       # average ReadCleanReq miss latency
system.l2.ReadSharedReq_avg_miss_latency::cpu.data 32501.122625                       # average ReadSharedReq miss latency
system.l2.ReadSharedReq_avg_miss_latency::total 32501.122625                       # average ReadSharedReq miss latency
system.l2.demand_avg_miss_latency::cpu.inst 153228.169014                       # average overall miss latency
system.l2.demand_avg_miss_latency::cpu.data 38079.255744                       # average overall miss latency
system.l2.demand_avg_miss_latency::total 39770.940242                       # average overall miss latency
system.l2.overall_avg_miss_latency::cpu.inst 153228.169014                       # average overall miss latency
system.l2.overall_avg_miss_latency::cpu.data 38079.255744                       # average overall miss latency
system.l2.overall_avg_miss_latency::total 39770.940242                       # average overall miss latency
system.l2.blocked_cycles::no_mshrs                  0                       # number of cycles access was blocked
system.l2.blocked_cycles::no_targets                0                       # number of cycles access was blocked
system.l2.blocked::no_mshrs                         0                       # number of cycles access was blocked
system.l2.blocked::no_targets                       0                       # number of cycles access was blocked
system.l2.avg_blocked_cycles::no_mshrs            nan                       # average number of cycles each access was blocked
system.l2.avg_blocked_cycles::no_targets          nan                       # average number of cycles each access was blocked
system.l2.writebacks::writebacks                21746                       # number of writebacks
system.l2.writebacks::total                     21746                       # number of writebacks
system.l2.ReadExReq_mshr_misses::cpu.data         6439                       # number of ReadExReq MSHR misses
system.l2.ReadExReq_mshr_misses::total           6439                       # number of ReadExReq MSHR misses
system.l2.ReadCleanReq_mshr_misses::cpu.inst          355                       # number of ReadCleanReq MSHR misses
system.l2.ReadCleanReq_mshr_misses::total          355                       # number of ReadCleanReq MSHR misses
system.l2.ReadSharedReq_mshr_misses::cpu.data        17370                       # number of ReadSharedReq MSHR misses
system.l2.ReadSharedReq_mshr_misses::total        17370                       # number of ReadSharedReq MSHR misses
system.l2.demand_mshr_misses::cpu.inst            355                       # number of demand (read+write) MSHR misses
system.l2.demand_mshr_misses::cpu.data          23809                       # number of demand (read+write) MSHR misses
system.l2.demand_mshr_misses::total             24164                       # number of demand (read+write) MSHR misses
system.l2.overall_mshr_misses::cpu.inst           355                       # number of overall MSHR misses
system.l2.overall_mshr_misses::cpu.data         23809                       # number of overall MSHR misses
system.l2.overall_mshr_misses::total            24164                       # number of overall MSHR misses
system.l2.ReadExReq_mshr_miss_latency::cpu.data    277694500                       # number of ReadExReq MSHR miss cycles
system.l2.ReadExReq_mshr_miss_latency::total    277694500                       # number of ReadExReq MSHR miss cycles
system.l2.ReadCleanReq_mshr_miss_latency::cpu.inst     50846000                       # number of ReadCleanReq MSHR miss cycles
system.l2.ReadCleanReq_mshr_miss_latency::total     50846000                       # number of ReadCleanReq MSHR miss cycles
system.l2.ReadSharedReq_mshr_miss_latency::cpu.data    390844500                       # number of ReadSharedReq MSHR miss cycles
system.l2.ReadSharedReq_mshr_miss_latency::total    390844500                       # number of ReadSharedReq MSHR miss cycles
system.l2.demand_mshr_miss_latency::cpu.inst     50846000                       # number of demand (read+write) MSHR miss cycles
system.l2.demand_mshr_miss_latency::cpu.data    668539000                       # number of demand (read+write) MSHR miss cycles
system.l2.demand_mshr_miss_latency::total    719385000                       # number of demand (read+write) MSHR miss cycles
system.l2.overall_mshr_miss_latency::cpu.inst     50846000                       # number of overall MSHR miss cycles
system.l2.overall_mshr_miss_latency::cpu.data    668539000                       # number of overall MSHR miss cycles
system.l2.overall_mshr_miss_latency::total    719385000                       # number of overall MSHR miss cycles
system.l2.ReadExReq_mshr_miss_rate::cpu.data     0.961332                       # mshr miss rate for ReadExReq accesses
system.l2.ReadExReq_mshr_miss_rate::total     0.961332                       # mshr miss rate for ReadExReq accesses
system.l2.ReadCleanReq_mshr_miss_rate::cpu.inst            1                       # mshr miss rate for ReadCleanReq accesses
system.l2.ReadCleanReq_mshr_miss_rate::total            1                       # mshr miss rate for ReadCleanReq accesses
system.l2.ReadSharedReq_mshr_miss_rate::cpu.data     0.448501                       # mshr miss rate for ReadSharedReq accesses
system.l2.ReadSharedReq_mshr_miss_rate::total     0.448501                       # mshr miss rate for ReadSharedReq accesses
system.l2.demand_mshr_miss_rate::cpu.inst            1                       # mshr miss rate for demand accesses
system.l2.demand_mshr_miss_rate::cpu.data     0.524116                       # mshr miss rate for demand accesses
system.l2.demand_mshr_miss_rate::total       0.527806                       # mshr miss rate for demand accesses
system.l2.overall_mshr_miss_rate::cpu.inst            1                       # mshr miss rate for overall accesses
system.l2.overall_mshr_miss_rate::cpu.data     0.524116                       # mshr miss rate for overall accesses
system.l2.overall_mshr_miss_rate::total      0.527806                       # mshr miss rate for overall accesses
system.l2.ReadExReq_avg_mshr_miss_latency::cpu.data 43126.960708                       # average ReadExReq mshr miss latency
system.l2.ReadExReq_avg_mshr_miss_latency::total 43126.960708                       # average ReadExReq mshr miss latency
system.l2.ReadCleanReq_avg_mshr_miss_latency::cpu.inst 143228.169014                       # average ReadCleanReq mshr miss latency
system.l2.ReadCleanReq_avg_mshr_miss_latency::total 143228.169014                       # average ReadCleanReq mshr miss latency
system.l2.ReadSharedReq_avg_mshr_miss_latency::cpu.data 22501.122625                       # average ReadSharedReq mshr miss latency
system.l2.ReadSharedReq_avg_mshr_miss_latency::total 22501.122625                       # average ReadSharedReq mshr miss latency
system.l2.demand_avg_mshr_miss_latency::cpu.inst 143228.169014                       # average overall mshr miss latency
system.l2.demand_avg_mshr_miss_latency::cpu.data 28079.255744                       # average overall mshr miss latency
system.l2.demand_avg_mshr_miss_latency::total 29770.940242                       # average overall mshr miss latency
system.l2.overall_avg_mshr_miss_latency::cpu.inst 143228.169014                       # average overall mshr miss latency
system.l2.overall_avg_mshr_miss_latency::cpu.data 28079.255744                       # average overall mshr miss latency
system.l2.overall_avg_mshr_miss_latency::total 29770.940242                       # average overall mshr miss latency
system.l2.replacements                          22140                       # number of replacements
system.l3.tags.pwrStateResidencyTicks::UNDEFINED  88059796000                       # Cumulative time (in ticks) in various power states
system.l3.tags.tagsinuse                  6321.817843                       # Cycle average of tags in use
system.l3.tags.total_refs                       46009                       # Total number of references to valid blocks.
system.l3.tags.sampled_refs                      6832                       # Sample count of references to valid blocks.
system.l3.tags.avg_refs                      6.734338                       # Average number of references to valid blocks.
system.l3.tags.warmup_cycle                    418000                       # Cycle when the warmup percentage was hit.
system.l3.tags.occ_blocks::cpu.inst        316.248652                       # Average occupied blocks per requestor
system.l3.tags.occ_blocks::cpu.data       6005.569191                       # Average occupied blocks per requestor
system.l3.tags.occ_percent::cpu.inst         0.038605                       # Average percentage of cache occupancy
system.l3.tags.occ_percent::cpu.data         0.733102                       # Average percentage of cache occupancy
system.l3.tags.occ_percent::total            0.771706                       # Average percentage of cache occupancy
system.l3.tags.occ_task_id_blocks::1024          6832                       # Occupied blocks per task id
system.l3.tags.age_task_id_blocks_1024::0           52                       # Occupied blocks per task id
system.l3.tags.age_task_id_blocks_1024::3            2                       # Occupied blocks per task id
system.l3.tags.age_task_id_blocks_1024::4         6778                       # Occupied blocks per task id
system.l3.tags.occ_task_id_percent::1024     0.833984                       # Percentage of cache occupancy per task id
system.l3.tags.tag_accesses                 376912560                       # Number of tag accesses
system.l3.tags.data_accesses                376912560                       # Number of data accesses
system.l3.pwrStateResidencyTicks::UNDEFINED  88059796000                       # Cumulative time (in ticks) in various power states
system.l3.WritebackDirty_hits::writebacks        21746                       # number of WritebackDirty hits
system.l3.WritebackDirty_hits::total            21746                       # number of WritebackDirty hits
system.l3.ReadExReq_hits::cpu.data                 60                       # number of ReadExReq hits
system.l3.ReadExReq_hits::total                    60                       # number of ReadExReq hits
system.l3.ReadSharedReq_hits::cpu.data          17272                       # number of ReadSharedReq hits
system.l3.ReadSharedReq_hits::total             17272                       # number of ReadSharedReq hits
system.l3.demand_hits::cpu.data                 17332                       # number of demand (read+write) hits
system.l3.demand_hits::total                    17332                       # number of demand (read+write) hits
system.l3.overall_hits::cpu.data                17332                       # number of overall hits
system.l3.overall_hits::total                   17332                       # number of overall hits
system.l3.ReadExReq_misses::cpu.data             6379                       # number of ReadExReq misses
system.l3.ReadExReq_misses::total                6379                       # number of ReadExReq misses
system.l3.ReadSharedReq_misses::cpu.inst          355                       # number of ReadSharedReq misses
system.l3.ReadSharedReq_misses::cpu.data           98                       # number of ReadSharedReq misses
system.l3.ReadSharedReq_misses::total             453                       # number of ReadSharedReq misses
system.l3.demand_misses::cpu.inst                 355                       # number of demand (read+write) misses
system.l3.demand_misses::cpu.data                6477                       # number of demand (read+write) misses
system.l3.demand_misses::total                   6832                       # number of demand (read+write) misses
system.l3.overall_misses::cpu.inst                355                       # number of overall misses
system.l3.overall_misses::cpu.data               6477                       # number of overall misses
system.l3.overall_misses::total                  6832                       # number of overall misses
system.l3.ReadExReq_miss_latency::cpu.data    206235500                       # number of ReadExReq miss cycles
system.l3.ReadExReq_miss_latency::total     206235500                       # number of ReadExReq miss cycles
system.l3.ReadSharedReq_miss_latency::cpu.inst     46941000                       # number of ReadSharedReq miss cycles
system.l3.ReadSharedReq_miss_latency::cpu.data     18418500                       # number of ReadSharedReq miss cycles
system.l3.ReadSharedReq_miss_latency::total     65359500                       # number of ReadSharedReq miss cycles
system.l3.demand_miss_latency::cpu.inst      46941000                       # number of demand (read+write) miss cycles
system.l3.demand_miss_latency::cpu.data     224654000                       # number of demand (read+write) miss cycles
system.l3.demand_miss_latency::total        271595000                       # number of demand (read+write) miss cycles
system.l3.overall_miss_latency::cpu.inst     46941000                       # number of overall miss cycles
system.l3.overall_miss_latency::cpu.data    224654000                       # number of overall miss cycles
system.l3.overall_miss_latency::total       271595000                       # number of overall miss cycles
system.l3.WritebackDirty_accesses::writebacks        21746                       # number of WritebackDirty accesses(hits+misses)
system.l3.WritebackDirty_accesses::total        21746                       # number of WritebackDirty accesses(hits+misses)
system.l3.ReadExReq_accesses::cpu.data           6439                       # number of ReadExReq accesses(hits+misses)
system.l3.ReadExReq_accesses::total              6439                       # number of ReadExReq accesses(hits+misses)
system.l3.ReadSharedReq_accesses::cpu.inst          355                       # number of ReadSharedReq accesses(hits+misses)
system.l3.ReadSharedReq_accesses::cpu.data        17370                       # number of ReadSharedReq accesses(hits+misses)
system.l3.ReadSharedReq_accesses::total         17725                       # number of ReadSharedReq accesses(hits+misses)
system.l3.demand_accesses::cpu.inst               355                       # number of demand (read+write) accesses
system.l3.demand_accesses::cpu.data             23809                       # number of demand (read+write) accesses
system.l3.demand_accesses::total                24164                       # number of demand (read+write) accesses
system.l3.overall_accesses::cpu.inst              355                       # number of overall (read+write) accesses
system.l3.overall_accesses::cpu.data            23809                       # number of overall (read+write) accesses
system.l3.overall_accesses::total               24164                       # number of overall (read+write) accesses
system.l3.ReadExReq_miss_rate::cpu.data      0.990682                       # miss rate for ReadExReq accesses
system.l3.ReadExReq_miss_rate::total         0.990682                       # miss rate for ReadExReq accesses
system.l3.ReadSharedReq_miss_rate::cpu.inst            1                       # miss rate for ReadSharedReq accesses
system.l3.ReadSharedReq_miss_rate::cpu.data     0.005642                       # miss rate for ReadSharedReq accesses
system.l3.ReadSharedReq_miss_rate::total     0.025557                       # miss rate for ReadSharedReq accesses
system.l3.demand_miss_rate::cpu.inst                1                       # miss rate for demand accesses
system.l3.demand_miss_rate::cpu.data         0.272040                       # miss rate for demand accesses
system.l3.demand_miss_rate::total            0.282735                       # miss rate for demand accesses
system.l3.overall_miss_rate::cpu.inst               1                       # miss rate for overall accesses
system.l3.overall_miss_rate::cpu.data        0.272040                       # miss rate for overall accesses
system.l3.overall_miss_rate::total           0.282735                       # miss rate for overall accesses
system.l3.ReadExReq_avg_miss_latency::cpu.data 32330.380937                       # average ReadExReq miss latency
system.l3.ReadExReq_avg_miss_latency::total 32330.380937                       # average ReadExReq miss latency
system.l3.ReadSharedReq_avg_miss_latency::cpu.inst 132228.169014                       # average ReadSharedReq miss latency
system.l3.ReadSharedReq_avg_miss_latency::cpu.data 187943.877551                       # average ReadSharedReq miss latency
system.l3.ReadSharedReq_avg_miss_latency::total 144281.456954                       # average ReadSharedReq miss latency
system.l3.demand_avg_miss_latency::cpu.inst 132228.169014                       # average overall miss latency
system.l3.demand_avg_miss_latency::cpu.data 34684.884978                       # average overall miss latency
system.l3.demand_avg_miss_latency::total 39753.366511                       # average overall miss latency
system.l3.overall_avg_miss_latency::cpu.inst 132228.169014                       # average overall miss latency
system.l3.overall_avg_miss_latency::cpu.data 34684.884978                       # average overall miss latency
system.l3.overall_avg_miss_latency::total 39753.366511                       # average overall miss latency
system.l3.blocked_cycles::no_mshrs                  0                       # number of cycles access was blocked
system.l3.blocked_cycles::no_targets                0                       # number of cycles access was blocked
system.l3.blocked::no_mshrs                         0                       # number of cycles access was blocked
system.l3.blocked::no_targets                       0                       # number of cycles access was blocked
system.l3.avg_blocked_cycles::no_mshrs            nan                       # average number of cycles each access was blocked
system.l3.avg_blocked_cycles::no_targets          nan                       # average number of cycles each access was blocked
system.l3.ReadExReq_mshr_misses::cpu.data         6379                       # number of ReadExReq MSHR misses
system.l3.ReadExReq_mshr_misses::total           6379                       # number of ReadExReq MSHR misses
system.l3.ReadSharedReq_mshr_misses::cpu.inst          355                       # number of ReadSharedReq MSHR misses
system.l3.ReadSharedReq_mshr_misses::cpu.data           98                       # number of ReadSharedReq MSHR misses
system.l3.ReadSharedReq_mshr_misses::total          453                       # number of ReadSharedReq MSHR misses
system.l3.demand_mshr_misses::cpu.inst            355                       # number of demand (read+write) MSHR misses
system.l3.demand_mshr_misses::cpu.data           6477                       # number of demand (read+write) MSHR misses
system.l3.demand_mshr_misses::total              6832                       # number of demand (read+write) MSHR misses
system.l3.overall_mshr_misses::cpu.inst           355                       # number of overall MSHR misses
system.l3.overall_mshr_misses::cpu.data          6477                       # number of overall MSHR misses
system.l3.overall_mshr_misses::total             6832                       # number of overall MSHR misses
system.l3.ReadExReq_mshr_miss_latency::cpu.data    104171500                       # number of ReadExReq MSHR miss cycles
system.l3.ReadExReq_mshr_miss_latency::total    104171500                       # number of ReadExReq MSHR miss cycles
system.l3.ReadSharedReq_mshr_miss_latency::cpu.inst     41261000                       # number of ReadSharedReq MSHR miss cycles
system.l3.ReadSharedReq_mshr_miss_latency::cpu.data     16850500                       # number of ReadSharedReq MSHR miss cycles
system.l3.ReadSharedReq_mshr_miss_latency::total     58111500                       # number of ReadSharedReq MSHR miss cycles
system.l3.demand_mshr_miss_latency::cpu.inst     41261000                       # number of demand (read+write) MSHR miss cycles
system.l3.demand_mshr_miss_latency::cpu.data    121022000                       # number of demand (read+write) MSHR miss cycles
system.l3.demand_mshr_miss_latency::total    162283000                       # number of demand (read+write) MSHR miss cycles
system.l3.overall_mshr_miss_latency::cpu.inst     41261000                       # number of overall MSHR miss cycles
system.l3.overall_mshr_miss_latency::cpu.data    121022000                       # number of overall MSHR miss cycles
system.l3.overall_mshr_miss_latency::total    162283000                       # number of overall MSHR miss cycles
system.l3.ReadExReq_mshr_miss_rate::cpu.data     0.990682                       # mshr miss rate for ReadExReq accesses
system.l3.ReadExReq_mshr_miss_rate::total     0.990682                       # mshr miss rate for ReadExReq accesses
system.l3.ReadSharedReq_mshr_miss_rate::cpu.inst            1                       # mshr miss rate for ReadSharedReq accesses
system.l3.ReadSharedReq_mshr_miss_rate::cpu.data     0.005642                       # mshr miss rate for ReadSharedReq accesses
system.l3.ReadSharedReq_mshr_miss_rate::total     0.025557                       # mshr miss rate for ReadSharedReq accesses
system.l3.demand_mshr_miss_rate::cpu.inst            1                       # mshr miss rate for demand accesses
system.l3.demand_mshr_miss_rate::cpu.data     0.272040                       # mshr miss rate for demand accesses
system.l3.demand_mshr_miss_rate::total       0.282735                       # mshr miss rate for demand accesses
system.l3.overall_mshr_miss_rate::cpu.inst            1                       # mshr miss rate for overall accesses
system.l3.overall_mshr_miss_rate::cpu.data     0.272040                       # mshr miss rate for overall accesses
system.l3.overall_mshr_miss_rate::total      0.282735                       # mshr miss rate for overall accesses
system.l3.ReadExReq_avg_mshr_miss_latency::cpu.data 16330.380937                       # average ReadExReq mshr miss latency
system.l3.ReadExReq_avg_mshr_miss_latency::total 16330.380937                       # average ReadExReq mshr miss latency
system.l3.ReadSharedReq_avg_mshr_miss_latency::cpu.inst 116228.169014                       # average ReadSharedReq mshr miss latency
system.l3.ReadSharedReq_avg_mshr_miss_latency::cpu.data 171943.877551                       # average ReadSharedReq mshr miss latency
system.l3.ReadSharedReq_avg_mshr_miss_latency::total 128281.456954                       # average ReadSharedReq mshr miss latency
system.l3.demand_avg_mshr_miss_latency::cpu.inst 116228.169014                       # average overall mshr miss latency
system.l3.demand_avg_mshr_miss_latency::cpu.data 18684.884978                       # average overall mshr miss latency
system.l3.demand_avg_mshr_miss_latency::total 23753.366511                       # average overall mshr miss latency
system.l3.overall_avg_mshr_miss_latency::cpu.inst 116228.169014                       # average overall mshr miss latency
system.l3.overall_avg_mshr_miss_latency::cpu.data 18684.884978                       # average overall mshr miss latency
system.l3.overall_avg_mshr_miss_latency::total 23753.366511                       # average overall mshr miss latency
system.l3.replacements                              0                       # number of replacements
system.membus.snoop_filter.tot_requests          6832                       # Total number of requests made to the snoop filter.
system.membus.snoop_filter.hit_single_requests            0                       # Number of requests hitting in the snoop filter with a single holder of the requested data.
system.membus.snoop_filter.hit_multi_requests            0                       # Number of requests hitting in the snoop filter with multiple (>1) holders of the requested data.
system.membus.snoop_filter.tot_snoops               0                       # Total number of snoops made to the snoop filter.
system.membus.snoop_filter.hit_single_snoops            0                       # Number of snoops hitting in the snoop filter with a single holder of the requested data.
system.membus.snoop_filter.hit_multi_snoops            0                       # Number of snoops hitting in the snoop filter with multiple (>1) holders of the requested data.
system.membus.pwrStateResidencyTicks::UNDEFINED  88059796000                       # Cumulative time (in ticks) in various power states
system.membus.trans_dist::ReadResp                453                       # Transaction distribution
system.membus.trans_dist::ReadExReq              6379                       # Transaction distribution
system.membus.trans_dist::ReadExResp             6379                       # Transaction distribution
system.membus.trans_dist::ReadSharedReq           453                       # Transaction distribution
system.membus.pkt_count_system.l3.mem_side::system.mem_ctrls.port        13664                       # Packet count per connected master and slave (bytes)
system.membus.pkt_count_system.l3.mem_side::total        13664                       # Packet count per connected master and slave (bytes)
system.membus.pkt_count::total                  13664                       # Packet count per connected master and slave (bytes)
system.membus.pkt_size_system.l3.mem_side::system.mem_ctrls.port       437248                       # Cumulative packet size per connected master and slave (bytes)
system.membus.pkt_size_system.l3.mem_side::total       437248                       # Cumulative packet size per connected master and slave (bytes)
system.membus.pkt_size::total                  437248                       # Cumulative packet size per connected master and slave (bytes)
system.membus.snoops                                0                       # Total snoops (count)
system.membus.snoopTraffic                          0                       # Total snoop traffic (bytes)
system.membus.snoop_fanout::samples              6832                       # Request fanout histogram
system.membus.snoop_fanout::mean                    0                       # Request fanout histogram
system.membus.snoop_fanout::stdev                   0                       # Request fanout histogram
system.membus.snoop_fanout::underflows              0      0.00%      0.00% # Request fanout histogram
system.membus.snoop_fanout::0                    6832    100.00%    100.00% # Request fanout histogram
system.membus.snoop_fanout::1                       0      0.00%    100.00% # Request fanout histogram
system.membus.snoop_fanout::overflows               0      0.00%    100.00% # Request fanout histogram
system.membus.snoop_fanout::min_value               0                       # Request fanout histogram
system.membus.snoop_fanout::max_value               0                       # Request fanout histogram
system.membus.snoop_fanout::total                6832                       # Request fanout histogram
system.membus.reqLayer2.occupancy             6836000                       # Layer occupancy (ticks)
system.membus.reqLayer2.utilization               0.0                       # Layer utilization (%)
system.membus.respLayer1.occupancy           34164000                       # Layer occupancy (ticks)
system.membus.respLayer1.utilization              0.0                       # Layer utilization (%)
system.tol2bus.snoop_filter.tot_requests       106734                       # Total number of requests made to the snoop filter.
system.tol2bus.snoop_filter.hit_single_requests        60952                       # Number of requests hitting in the snoop filter with a single holder of the requested data.
system.tol2bus.snoop_filter.hit_multi_requests            0                       # Number of requests hitting in the snoop filter with multiple (>1) holders of the requested data.
system.tol2bus.snoop_filter.tot_snoops            295                       # Total number of snoops made to the snoop filter.
system.tol2bus.snoop_filter.hit_single_snoops          295                       # Number of snoops hitting in the snoop filter with a single holder of the requested data.
system.tol2bus.snoop_filter.hit_multi_snoops            0                       # Number of snoops hitting in the snoop filter with multiple (>1) holders of the requested data.
system.tol2bus.pwrStateResidencyTicks::UNDEFINED  88059796000                       # Cumulative time (in ticks) in various power states
system.tol2bus.trans_dist::ReadResp             39084                       # Transaction distribution
system.tol2bus.trans_dist::WritebackDirty        65324                       # Transaction distribution
system.tol2bus.trans_dist::WritebackClean           46                       # Transaction distribution
system.tol2bus.trans_dist::CleanEvict            1731                       # Transaction distribution
system.tol2bus.trans_dist::UpgradeReq           15991                       # Transaction distribution
system.tol2bus.trans_dist::UpgradeResp          15991                       # Transaction distribution
system.tol2bus.trans_dist::ReadExReq             6698                       # Transaction distribution
system.tol2bus.trans_dist::ReadExResp            6698                       # Transaction distribution
system.tol2bus.trans_dist::ReadCleanReq           355                       # Transaction distribution
system.tol2bus.trans_dist::ReadSharedReq        38729                       # Transaction distribution
system.tol2bus.pkt_count_system.cpu.icache.mem_side::system.l2.cpu_side          756                       # Packet count per connected master and slave (bytes)
system.tol2bus.pkt_count_system.cpu.dcache.mem_side::system.l2.cpu_side       167751                       # Packet count per connected master and slave (bytes)
system.tol2bus.pkt_count::total                168507                       # Packet count per connected master and slave (bytes)
system.tol2bus.pkt_size_system.cpu.icache.mem_side::system.l2.cpu_side        25664                       # Cumulative packet size per connected master and slave (bytes)
system.tol2bus.pkt_size_system.cpu.dcache.mem_side::system.l2.cpu_side      5696320                       # Cumulative packet size per connected master and slave (bytes)
system.tol2bus.pkt_size::total                5721984                       # Cumulative packet size per connected master and slave (bytes)
system.tol2bus.snoops                           22140                       # Total snoops (count)
system.tol2bus.snoopTraffic                   1391744                       # Total snoop traffic (bytes)
system.tol2bus.snoop_fanout::samples            83913                       # Request fanout histogram
system.tol2bus.snoop_fanout::mean            0.003516                       # Request fanout histogram
system.tol2bus.snoop_fanout::stdev           0.059188                       # Request fanout histogram
system.tol2bus.snoop_fanout::underflows             0      0.00%      0.00% # Request fanout histogram
system.tol2bus.snoop_fanout::0                  83618     99.65%     99.65% # Request fanout histogram
system.tol2bus.snoop_fanout::1                    295      0.35%    100.00% # Request fanout histogram
system.tol2bus.snoop_fanout::2                      0      0.00%    100.00% # Request fanout histogram
system.tol2bus.snoop_fanout::3                      0      0.00%    100.00% # Request fanout histogram
system.tol2bus.snoop_fanout::4                      0      0.00%    100.00% # Request fanout histogram
system.tol2bus.snoop_fanout::overflows              0      0.00%    100.00% # Request fanout histogram
system.tol2bus.snoop_fanout::min_value              0                       # Request fanout histogram
system.tol2bus.snoop_fanout::max_value              1                       # Request fanout histogram
system.tol2bus.snoop_fanout::total              83913                       # Request fanout histogram
system.tol2bus.reqLayer0.occupancy           96991000                       # Layer occupancy (ticks)
system.tol2bus.reqLayer0.utilization              0.1                       # Layer utilization (%)
system.tol2bus.respLayer0.occupancy            532500                       # Layer occupancy (ticks)
system.tol2bus.respLayer0.utilization             0.0                       # Layer utilization (%)
system.tol2bus.respLayer1.occupancy          76136000                       # Layer occupancy (ticks)
system.tol2bus.respLayer1.utilization             0.1                       # Layer utilization (%)
system.tol3bus.snoop_filter.tot_requests        46009                       # Total number of requests made to the snoop filter.
system.tol3bus.snoop_filter.hit_single_requests        21845                       # Number of requests hitting in the snoop filter with a single holder of the requested data.
system.tol3bus.snoop_filter.hit_multi_requests            0                       # Number of requests hitting in the snoop filter with multiple (>1) holders of the requested data.
system.tol3bus.snoop_filter.tot_snoops              0                       # Total number of snoops made to the snoop filter.
system.tol3bus.snoop_filter.hit_single_snoops            0                       # Number of snoops hitting in the snoop filter with a single holder of the requested data.
system.tol3bus.snoop_filter.hit_multi_snoops            0                       # Number of snoops hitting in the snoop filter with multiple (>1) holders of the requested data.
system.tol3bus.pwrStateResidencyTicks::UNDEFINED  88059796000                       # Cumulative time (in ticks) in various power states
system.tol3bus.trans_dist::ReadResp             17725                       # Transaction distribution
system.tol3bus.trans_dist::WritebackDirty        21746                       # Transaction distribution
system.tol3bus.trans_dist::CleanEvict              99                       # Transaction distribution
system.tol3bus.trans_dist::ReadExReq             6439                       # Transaction distribution
system.tol3bus.trans_dist::ReadExResp            6439                       # Transaction distribution
system.tol3bus.trans_dist::ReadSharedReq        17725                       # Transaction distribution
system.tol3bus.pkt_count_system.l2.mem_side::system.l3.cpu_side        70173                       # Packet count per connected master and slave (bytes)
system.tol3bus.pkt_size_system.l2.mem_side::system.l3.cpu_side      2938240                       # Cumulative packet size per connected master and slave (bytes)
system.tol3bus.snoops                               0                       # Total snoops (count)
system.tol3bus.snoopTraffic                         0                       # Total snoop traffic (bytes)
system.tol3bus.snoop_fanout::samples            24164                       # Request fanout histogram
system.tol3bus.snoop_fanout::mean                   0                       # Request fanout histogram
system.tol3bus.snoop_fanout::stdev                  0                       # Request fanout histogram
system.tol3bus.snoop_fanout::underflows             0      0.00%      0.00% # Request fanout histogram
system.tol3bus.snoop_fanout::0                  24164    100.00%    100.00% # Request fanout histogram
system.tol3bus.snoop_fanout::1                      0      0.00%    100.00% # Request fanout histogram
system.tol3bus.snoop_fanout::overflows              0      0.00%    100.00% # Request fanout histogram
system.tol3bus.snoop_fanout::min_value              0                       # Request fanout histogram
system.tol3bus.snoop_fanout::max_value              0                       # Request fanout histogram
system.tol3bus.snoop_fanout::total              24164                       # Request fanout histogram
system.tol3bus.reqLayer0.occupancy           44750500                       # Layer occupancy (ticks)
system.tol3bus.reqLayer0.utilization              0.1                       # Layer utilization (%)
system.tol3bus.respLayer0.occupancy          36246000                       # Layer occupancy (ticks)
system.tol3bus.respLayer0.utilization             0.0                       # Layer utilization (%)

---------- End Simulation Statistics   ----------
