
---------- Begin Simulation Statistics ----------
sim_seconds                                  0.088565                       # Number of seconds simulated
sim_ticks                                 88564765000                       # Number of ticks simulated
final_tick                                88564765000                       # Number of ticks from beginning of simulation (restored from checkpoints and never reset)
sim_freq                                 1000000000000                       # Frequency of simulated ticks
host_inst_rate                                 853048                       # Simulator instruction rate (inst/s)
host_op_rate                                  1404560                       # Simulator op (including micro ops) rate (op/s)
host_tick_rate                             1694335064                       # Simulator tick rate (ticks/s)
host_mem_usage                                 669324                       # Number of bytes of host memory used
host_seconds                                    52.27                       # Real time elapsed on the host
sim_insts                                    44589723                       # Number of instructions simulated
sim_ops                                      73417876                       # Number of ops (including micro ops) simulated
system.voltage_domain.voltage                       1                       # Voltage in Volts
system.clk_domain.clock                          1000                       # Clock period in ticks
system.mem_ctrls.pwrStateResidencyTicks::UNDEFINED  88564765000                       # Cumulative time (in ticks) in various power states
system.mem_ctrls.bytes_read::cpu.inst           22720                       # Number of bytes read from this memory
system.mem_ctrls.bytes_read::cpu.data          450304                       # Number of bytes read from this memory
system.mem_ctrls.bytes_read::total             473024                       # Number of bytes read from this memory
system.mem_ctrls.bytes_inst_read::cpu.inst        22720                       # Number of instructions bytes read from this memory
system.mem_ctrls.bytes_inst_read::total         22720                       # Number of instructions bytes read from this memory
system.mem_ctrls.bytes_written::writebacks        52032                       # Number of bytes written to this memory
system.mem_ctrls.bytes_written::total           52032                       # Number of bytes written to this memory
system.mem_ctrls.num_reads::cpu.inst              355                       # Number of read requests responded to by this memory
system.mem_ctrls.num_reads::cpu.data             7036                       # Number of read requests responded to by this memory
system.mem_ctrls.num_reads::total                7391                       # Number of read requests responded to by this memory
system.mem_ctrls.num_writes::writebacks           813                       # Number of write requests responded to by this memory
system.mem_ctrls.num_writes::total                813                       # Number of write requests responded to by this memory
system.mem_ctrls.bw_read::cpu.inst             256535                       # Total read bandwidth from this memory (bytes/s)
system.mem_ctrls.bw_read::cpu.data            5084460                       # Total read bandwidth from this memory (bytes/s)
system.mem_ctrls.bw_read::total               5340995                       # Total read bandwidth from this memory (bytes/s)
system.mem_ctrls.bw_inst_read::cpu.inst        256535                       # Instruction read bandwidth from this memory (bytes/s)
system.mem_ctrls.bw_inst_read::total           256535                       # Instruction read bandwidth from this memory (bytes/s)
system.mem_ctrls.bw_write::writebacks          587502                       # Write bandwidth from this memory (bytes/s)
system.mem_ctrls.bw_write::total               587502                       # Write bandwidth from this memory (bytes/s)
system.mem_ctrls.bw_total::writebacks          587502                       # Total bandwidth to/from this memory (bytes/s)
system.mem_ctrls.bw_total::cpu.inst            256535                       # Total bandwidth to/from this memory (bytes/s)
system.mem_ctrls.bw_total::cpu.data           5084460                       # Total bandwidth to/from this memory (bytes/s)
system.mem_ctrls.bw_total::total              5928498                       # Total bandwidth to/from this memory (bytes/s)
system.pwrStateResidencyTicks::UNDEFINED  88564765000                       # Cumulative time (in ticks) in various power states
system.cpu_voltage_domain.voltage                   1                       # Voltage in Volts
system.cpu_clk_domain.clock                       500                       # Clock period in ticks
system.cpu.dtb.walker.pwrStateResidencyTicks::UNDEFINED  88564765000                       # Cumulative time (in ticks) in various power states
system.cpu.dtb.rdAccesses                    20877749                       # TLB accesses on read requests
system.cpu.dtb.wrAccesses                     5816549                       # TLB accesses on write requests
system.cpu.dtb.rdMisses                           166                       # TLB misses on read requests
system.cpu.dtb.wrMisses                           106                       # TLB misses on write requests
system.cpu.apic_clk_domain.clock                 8000                       # Clock period in ticks
system.cpu.interrupts.pwrStateResidencyTicks::UNDEFINED  88564765000                       # Cumulative time (in ticks) in various power states
system.cpu.itb.walker.pwrStateResidencyTicks::UNDEFINED  88564765000                       # Cumulative time (in ticks) in various power states
system.cpu.itb.rdAccesses                           0                       # TLB accesses on read requests
system.cpu.itb.wrAccesses                    59916921                       # TLB accesses on write requests
system.cpu.itb.rdMisses                             0                       # TLB misses on read requests
system.cpu.itb.wrMisses                            36                       # TLB misses on write requests
system.cpu.workload.numSyscalls                     9                       # Number of system calls
system.cpu.pwrStateResidencyTicks::ON     88564765000                       # Cumulative time (in ticks) in various power states
system.cpu.numCycles                        177129530                       # number of cpu cycles simulated
system.cpu.numWorkItemsStarted                      0                       # number of work items this cpu started
system.cpu.numWorkItemsCompleted                    0                       # number of work items this cpu completed
system.cpu.committedInsts                    44589723                       # Number of instructions committed
system.cpu.committedOps                      73417876                       # Number of ops (including micro ops) committed
system.cpu.num_int_alu_accesses              72895952                       # Number of integer alu accesses
system.cpu.num_fp_alu_accesses                   1975                       # Number of float alu accesses
system.cpu.num_vec_alu_accesses                     0                       # Number of vector alu accesses
system.cpu.num_func_calls                      944900                       # number of times a function call or return occured
system.cpu.num_conditional_control_insts      4232452                       # number of instructions that are conditional controls
system.cpu.num_int_insts                     72895952                       # number of integer instructions
system.cpu.num_fp_insts                          1975                       # number of float instructions
system.cpu.num_vec_insts                            0                       # number of vector instructions
system.cpu.num_int_register_reads           163691649                       # number of times the integer registers were read
system.cpu.num_int_register_writes           63686411                       # number of times the integer registers were written
system.cpu.num_fp_register_reads                 3787                       # number of times the floating registers were read
system.cpu.num_fp_register_writes                1492                       # number of times the floating registers were written
system.cpu.num_vec_register_reads                   0                       # number of times the vector registers were read
system.cpu.num_vec_register_writes                  0                       # number of times the vector registers were written
system.cpu.num_cc_register_reads             27636619                       # number of times the CC registers were read
system.cpu.num_cc_register_writes            24933085                       # number of times the CC registers were written
system.cpu.num_mem_refs                      26694293                       # number of memory refs
system.cpu.num_load_insts                    20877745                       # Number of load instructions
system.cpu.num_store_insts                    5816548                       # Number of store instructions
system.cpu.num_idle_cycles                          0                       # Number of idle cycles
system.cpu.num_busy_cycles                  177129530                       # Number of busy cycles
system.cpu.not_idle_fraction                        1                       # Percentage of non-idle cycles
system.cpu.idle_fraction                            0                       # Percentage of idle cycles
system.cpu.Branches                           5574736                       # Number of branches fetched
system.cpu.op_class::No_OpClass                175846      0.24%      0.24% # Class of executed instruction
system.cpu.op_class::IntAlu                  45543779     62.03%     62.27% # Class of executed instruction
system.cpu.op_class::IntMult                        4      0.00%     62.27% # Class of executed instruction
system.cpu.op_class::IntDiv                   1002994      1.37%     63.64% # Class of executed instruction
system.cpu.op_class::FloatAdd                      10      0.00%     63.64% # Class of executed instruction
system.cpu.op_class::FloatCmp                       0      0.00%     63.64% # Class of executed instruction
system.cpu.op_class::FloatCvt                       0      0.00%     63.64% # Class of executed instruction
system.cpu.op_class::FloatMult                      0      0.00%     63.64% # Class of executed instruction
system.cpu.op_class::FloatMultAcc                   0      0.00%     63.64% # Class of executed instruction
system.cpu.op_class::FloatDiv                       0      0.00%     63.64% # Class of executed instruction
system.cpu.op_class::FloatMisc                      0      0.00%     63.64% # Class of executed instruction
system.cpu.op_class::FloatSqrt                      0      0.00%     63.64% # Class of executed instruction
system.cpu.op_class::SimdAdd                      374      0.00%     63.64% # Class of executed instruction
system.cpu.op_class::SimdAddAcc                     0      0.00%     63.64% # Class of executed instruction
system.cpu.op_class::SimdAlu                       68      0.00%     63.64% # Class of executed instruction
system.cpu.op_class::SimdCmp                        0      0.00%     63.64% # Class of executed instruction
system.cpu.op_class::SimdCvt                      108      0.00%     63.64% # Class of executed instruction
system.cpu.op_class::SimdMisc                     214      0.00%     63.64% # Class of executed instruction
system.cpu.op_class::SimdMult                       0      0.00%     63.64% # Class of executed instruction
system.cpu.op_class::SimdMultAcc                    0      0.00%     63.64% # Class of executed instruction
system.cpu.op_class::SimdShift                    186      0.00%     63.64% # Class of executed instruction
system.cpu.op_class::SimdShiftAcc                   0      0.00%     63.64% # Class of executed instruction
system.cpu.op_class::SimdSqrt                       0      0.00%     63.64% # Class of executed instruction
system.cpu.op_class::SimdFloatAdd                   0      0.00%     63.64% # Class of executed instruction
system.cpu.op_class::SimdFloatAlu                   0      0.00%     63.64% # Class of executed instruction
system.cpu.op_class::SimdFloatCmp                   0      0.00%     63.64% # Class of executed instruction
system.cpu.op_class::SimdFloatCvt                   0      0.00%     63.64% # Class of executed instruction
system.cpu.op_class::SimdFloatDiv                   0      0.00%     63.64% # Class of executed instruction
system.cpu.op_class::SimdFloatMisc                  0      0.00%     63.64% # Class of executed instruction
system.cpu.op_class::SimdFloatMult                  0      0.00%     63.64% # Class of executed instruction
system.cpu.op_class::SimdFloatMultAcc               0      0.00%     63.64% # Class of executed instruction
system.cpu.op_class::SimdFloatSqrt                  0      0.00%     63.64% # Class of executed instruction
system.cpu.op_class::MemRead                 20877677     28.44%     92.08% # Class of executed instruction
system.cpu.op_class::MemWrite                 5816113      7.92%    100.00% # Class of executed instruction
system.cpu.op_class::FloatMemRead                  68      0.00%    100.00% # Class of executed instruction
system.cpu.op_class::FloatMemWrite                435      0.00%    100.00% # Class of executed instruction
system.cpu.op_class::IprAccess                      0      0.00%    100.00% # Class of executed instruction
system.cpu.op_class::InstPrefetch                   0      0.00%    100.00% # Class of executed instruction
system.cpu.op_class::total                   73417876                       # Class of executed instruction
system.cpu.dcache.tags.pwrStateResidencyTicks::UNDEFINED  88564765000                       # Cumulative time (in ticks) in various power states
system.cpu.dcache.tags.tagsinuse           509.956374                       # Cycle average of tags in use
system.cpu.dcache.tags.total_refs            26694298                       # Total number of references to valid blocks.
system.cpu.dcache.tags.sampled_refs             45427                       # Sample count of references to valid blocks.
system.cpu.dcache.tags.avg_refs            587.630660                       # Average number of references to valid blocks.
system.cpu.dcache.tags.warmup_cycle            765000                       # Cycle when the warmup percentage was hit.
system.cpu.dcache.tags.occ_blocks::cpu.data   509.956374                       # Average occupied blocks per requestor
system.cpu.dcache.tags.occ_percent::cpu.data     0.996009                       # Average percentage of cache occupancy
system.cpu.dcache.tags.occ_percent::total     0.996009                       # Average percentage of cache occupancy
system.cpu.dcache.tags.occ_task_id_blocks::1024          512                       # Occupied blocks per task id
system.cpu.dcache.tags.age_task_id_blocks_1024::0           13                       # Occupied blocks per task id
system.cpu.dcache.tags.age_task_id_blocks_1024::1           14                       # Occupied blocks per task id
system.cpu.dcache.tags.age_task_id_blocks_1024::2           33                       # Occupied blocks per task id
system.cpu.dcache.tags.age_task_id_blocks_1024::3          450                       # Occupied blocks per task id
system.cpu.dcache.tags.age_task_id_blocks_1024::4            2                       # Occupied blocks per task id
system.cpu.dcache.tags.occ_task_id_percent::1024            1                       # Percentage of cache occupancy per task id
system.cpu.dcache.tags.tag_accesses          53434023                       # Number of tag accesses
system.cpu.dcache.tags.data_accesses         53434023                       # Number of data accesses
system.cpu.dcache.pwrStateResidencyTicks::UNDEFINED  88564765000                       # Cumulative time (in ticks) in various power states
system.cpu.dcache.ReadReq_hits::cpu.data     20839020                       # number of ReadReq hits
system.cpu.dcache.ReadReq_hits::total        20839020                       # number of ReadReq hits
system.cpu.dcache.WriteReq_hits::cpu.data      5794388                       # number of WriteReq hits
system.cpu.dcache.WriteReq_hits::total        5794388                       # number of WriteReq hits
system.cpu.dcache.demand_hits::cpu.data      26633408                       # number of demand (read+write) hits
system.cpu.dcache.demand_hits::total         26633408                       # number of demand (read+write) hits
system.cpu.dcache.overall_hits::cpu.data     26633408                       # number of overall hits
system.cpu.dcache.overall_hits::total        26633408                       # number of overall hits
system.cpu.dcache.ReadReq_misses::cpu.data        38729                       # number of ReadReq misses
system.cpu.dcache.ReadReq_misses::total         38729                       # number of ReadReq misses
system.cpu.dcache.WriteReq_misses::cpu.data        22161                       # number of WriteReq misses
system.cpu.dcache.WriteReq_misses::total        22161                       # number of WriteReq misses
system.cpu.dcache.demand_misses::cpu.data        60890                       # number of demand (read+write) misses
system.cpu.dcache.demand_misses::total          60890                       # number of demand (read+write) misses
system.cpu.dcache.overall_misses::cpu.data        60890                       # number of overall misses
system.cpu.dcache.overall_misses::total         60890                       # number of overall misses
system.cpu.dcache.ReadReq_miss_latency::cpu.data   1137185000                       # number of ReadReq miss cycles
system.cpu.dcache.ReadReq_miss_latency::total   1137185000                       # number of ReadReq miss cycles
system.cpu.dcache.WriteReq_miss_latency::cpu.data    818267000                       # number of WriteReq miss cycles
system.cpu.dcache.WriteReq_miss_latency::total    818267000                       # number of WriteReq miss cycles
system.cpu.dcache.demand_miss_latency::cpu.data   1955452000                       # number of demand (read+write) miss cycles
system.cpu.dcache.demand_miss_latency::total   1955452000                       # number of demand (read+write) miss cycles
system.cpu.dcache.overall_miss_latency::cpu.data   1955452000                       # number of overall miss cycles
system.cpu.dcache.overall_miss_latency::total   1955452000                       # number of overall miss cycles
system.cpu.dcache.ReadReq_accesses::cpu.data     20877749                       # number of ReadReq accesses(hits+misses)
system.cpu.dcache.ReadReq_accesses::total     20877749                       # number of ReadReq accesses(hits+misses)
system.cpu.dcache.WriteReq_accesses::cpu.data      5816549                       # number of WriteReq accesses(hits+misses)
system.cpu.dcache.WriteReq_accesses::total      5816549                       # number of WriteReq accesses(hits+misses)
system.cpu.dcache.demand_accesses::cpu.data     26694298                       # number of demand (read+write) accesses
system.cpu.dcache.demand_accesses::total     26694298                       # number of demand (read+write) accesses
system.cpu.dcache.overall_accesses::cpu.data     26694298                       # number of overall (read+write) accesses
system.cpu.dcache.overall_accesses::total     26694298                       # number of overall (read+write) accesses
system.cpu.dcache.ReadReq_miss_rate::cpu.data     0.001855                       # miss rate for ReadReq accesses
system.cpu.dcache.ReadReq_miss_rate::total     0.001855                       # miss rate for ReadReq accesses
system.cpu.dcache.WriteReq_miss_rate::cpu.data     0.003810                       # miss rate for WriteReq accesses
system.cpu.dcache.WriteReq_miss_rate::total     0.003810                       # miss rate for WriteReq accesses
system.cpu.dcache.demand_miss_rate::cpu.data     0.002281                       # miss rate for demand accesses
system.cpu.dcache.demand_miss_rate::total     0.002281                       # miss rate for demand accesses
system.cpu.dcache.overall_miss_rate::cpu.data     0.002281                       # miss rate for overall accesses
system.cpu.dcache.overall_miss_rate::total     0.002281                       # miss rate for overall accesses
system.cpu.dcache.ReadReq_avg_miss_latency::cpu.data 29362.622324                       # average ReadReq miss latency
system.cpu.dcache.ReadReq_avg_miss_latency::total 29362.622324                       # average ReadReq miss latency
system.cpu.dcache.WriteReq_avg_miss_latency::cpu.data 36923.739903                       # average WriteReq miss latency
system.cpu.dcache.WriteReq_avg_miss_latency::total 36923.739903                       # average WriteReq miss latency
system.cpu.dcache.demand_avg_miss_latency::cpu.data 32114.501560                       # average overall miss latency
system.cpu.dcache.demand_avg_miss_latency::total 32114.501560                       # average overall miss latency
system.cpu.dcache.overall_avg_miss_latency::cpu.data 32114.501560                       # average overall miss latency
system.cpu.dcache.overall_avg_miss_latency::total 32114.501560                       # average overall miss latency
system.cpu.dcache.blocked_cycles::no_mshrs            0                       # number of cycles access was blocked
system.cpu.dcache.blocked_cycles::no_targets            0                       # number of cycles access was blocked
system.cpu.dcache.blocked::no_mshrs                 0                       # number of cycles access was blocked
system.cpu.dcache.blocked::no_targets               0                       # number of cycles access was blocked
system.cpu.dcache.avg_blocked_cycles::no_mshrs          nan                       # average number of cycles each access was blocked
system.cpu.dcache.avg_blocked_cycles::no_targets          nan                       # average number of cycles each access was blocked
system.cpu.dcache.writebacks::writebacks        43575                       # number of writebacks
system.cpu.dcache.writebacks::total             43575                       # number of writebacks
system.cpu.dcache.ReadReq_mshr_misses::cpu.data        38729                       # number of ReadReq MSHR misses
system.cpu.dcache.ReadReq_mshr_misses::total        38729                       # number of ReadReq MSHR misses
system.cpu.dcache.WriteReq_mshr_misses::cpu.data        22161                       # number of WriteReq MSHR misses
system.cpu.dcache.WriteReq_mshr_misses::total        22161                       # number of WriteReq MSHR misses
system.cpu.dcache.demand_mshr_misses::cpu.data        60890                       # number of demand (read+write) MSHR misses
system.cpu.dcache.demand_mshr_misses::total        60890                       # number of demand (read+write) MSHR misses
system.cpu.dcache.overall_mshr_misses::cpu.data        60890                       # number of overall MSHR misses
system.cpu.dcache.overall_mshr_misses::total        60890                       # number of overall MSHR misses
system.cpu.dcache.ReadReq_mshr_miss_latency::cpu.data   1098456000                       # number of ReadReq MSHR miss cycles
system.cpu.dcache.ReadReq_mshr_miss_latency::total   1098456000                       # number of ReadReq MSHR miss cycles
system.cpu.dcache.WriteReq_mshr_miss_latency::cpu.data    796106000                       # number of WriteReq MSHR miss cycles
system.cpu.dcache.WriteReq_mshr_miss_latency::total    796106000                       # number of WriteReq MSHR miss cycles
system.cpu.dcache.demand_mshr_miss_latency::cpu.data   1894562000                       # number of demand (read+write) MSHR miss cycles
system.cpu.dcache.demand_mshr_miss_latency::total   1894562000                       # number of demand (read+write) MSHR miss cycles
system.cpu.dcache.overall_mshr_miss_latency::cpu.data   1894562000                       # number of overall MSHR miss cycles
system.cpu.dcache.overall_mshr_miss_latency::total   1894562000                       # number of overall MSHR miss cycles
system.cpu.dcache.ReadReq_mshr_miss_rate::cpu.data     0.001855                       # mshr miss rate for ReadReq accesses
system.cpu.dcache.ReadReq_mshr_miss_rate::total     0.001855                       # mshr miss rate for ReadReq accesses
system.cpu.dcache.WriteReq_mshr_miss_rate::cpu.data     0.003810                       # mshr miss rate for WriteReq accesses
system.cpu.dcache.WriteReq_mshr_miss_rate::total     0.003810                       # mshr miss rate for WriteReq accesses
system.cpu.dcache.demand_mshr_miss_rate::cpu.data     0.002281                       # mshr miss rate for demand accesses
system.cpu.dcache.demand_mshr_miss_rate::total     0.002281                       # mshr miss rate for demand accesses
system.cpu.dcache.overall_mshr_miss_rate::cpu.data     0.002281                       # mshr miss rate for overall accesses
system.cpu.dcache.overall_mshr_miss_rate::total     0.002281                       # mshr miss rate for overall accesses
system.cpu.dcache.ReadReq_avg_mshr_miss_latency::cpu.data 28362.622324                       # average ReadReq mshr miss latency
system.cpu.dcache.ReadReq_avg_mshr_miss_latency::total 28362.622324                       # average ReadReq mshr miss latency
system.cpu.dcache.WriteReq_avg_mshr_miss_latency::cpu.data 35923.739903                       # average WriteReq mshr miss latency
system.cpu.dcache.WriteReq_avg_mshr_miss_latency::total 35923.739903                       # average WriteReq mshr miss latency
system.cpu.dcache.demand_avg_mshr_miss_latency::cpu.data 31114.501560                       # average overall mshr miss latency
system.cpu.dcache.demand_avg_mshr_miss_latency::total 31114.501560                       # average overall mshr miss latency
system.cpu.dcache.overall_avg_mshr_miss_latency::cpu.data 31114.501560                       # average overall mshr miss latency
system.cpu.dcache.overall_avg_mshr_miss_latency::total 31114.501560                       # average overall mshr miss latency
system.cpu.dcache.replacements                  44915                       # number of replacements
system.cpu.dtb_walker_cache.tags.pwrStateResidencyTicks::UNDEFINED  88564765000                       # Cumulative time (in ticks) in various power states
system.cpu.dtb_walker_cache.tags.tagsinuse            0                       # Cycle average of tags in use
system.cpu.dtb_walker_cache.tags.total_refs            0                       # Total number of references to valid blocks.
system.cpu.dtb_walker_cache.tags.sampled_refs            0                       # Sample count of references to valid blocks.
system.cpu.dtb_walker_cache.tags.avg_refs          nan                       # Average number of references to valid blocks.
system.cpu.dtb_walker_cache.tags.warmup_cycle            0                       # Cycle when the warmup percentage was hit.
system.cpu.dtb_walker_cache.tags.tag_accesses            0                       # Number of tag accesses
system.cpu.dtb_walker_cache.tags.data_accesses            0                       # Number of data accesses
system.cpu.dtb_walker_cache.pwrStateResidencyTicks::UNDEFINED  88564765000                       # Cumulative time (in ticks) in various power states
system.cpu.dtb_walker_cache.blocked_cycles::no_mshrs            0                       # number of cycles access was blocked
system.cpu.dtb_walker_cache.blocked_cycles::no_targets            0                       # number of cycles access was blocked
system.cpu.dtb_walker_cache.blocked::no_mshrs            0                       # number of cycles access was blocked
system.cpu.dtb_walker_cache.blocked::no_targets            0                       # number of cycles access was blocked
system.cpu.dtb_walker_cache.avg_blocked_cycles::no_mshrs          nan                       # average number of cycles each access was blocked
system.cpu.dtb_walker_cache.avg_blocked_cycles::no_targets          nan                       # average number of cycles each access was blocked
system.cpu.dtb_walker_cache.replacements            0                       # number of replacements
system.cpu.icache.tags.pwrStateResidencyTicks::UNDEFINED  88564765000                       # Cumulative time (in ticks) in various power states
system.cpu.icache.tags.tagsinuse           280.270556                       # Cycle average of tags in use
system.cpu.icache.tags.total_refs            59916921                       # Total number of references to valid blocks.
system.cpu.icache.tags.sampled_refs               355                       # Sample count of references to valid blocks.
system.cpu.icache.tags.avg_refs          168780.059155                       # Average number of references to valid blocks.
system.cpu.icache.tags.warmup_cycle            445000                       # Cycle when the warmup percentage was hit.
system.cpu.icache.tags.occ_blocks::cpu.inst   280.270556                       # Average occupied blocks per requestor
system.cpu.icache.tags.occ_percent::cpu.inst     0.547403                       # Average percentage of cache occupancy
system.cpu.icache.tags.occ_percent::total     0.547403                       # Average percentage of cache occupancy
system.cpu.icache.tags.occ_task_id_blocks::1024          309                       # Occupied blocks per task id
system.cpu.icache.tags.age_task_id_blocks_1024::0           25                       # Occupied blocks per task id
system.cpu.icache.tags.age_task_id_blocks_1024::1           13                       # Occupied blocks per task id
system.cpu.icache.tags.age_task_id_blocks_1024::4          271                       # Occupied blocks per task id
system.cpu.icache.tags.occ_task_id_percent::1024     0.603516                       # Percentage of cache occupancy per task id
system.cpu.icache.tags.tag_accesses         119834197                       # Number of tag accesses
system.cpu.icache.tags.data_accesses        119834197                       # Number of data accesses
system.cpu.icache.pwrStateResidencyTicks::UNDEFINED  88564765000                       # Cumulative time (in ticks) in various power states
system.cpu.icache.ReadReq_hits::cpu.inst     59916566                       # number of ReadReq hits
system.cpu.icache.ReadReq_hits::total        59916566                       # number of ReadReq hits
system.cpu.icache.demand_hits::cpu.inst      59916566                       # number of demand (read+write) hits
system.cpu.icache.demand_hits::total         59916566                       # number of demand (read+write) hits
system.cpu.icache.overall_hits::cpu.inst     59916566                       # number of overall hits
system.cpu.icache.overall_hits::total        59916566                       # number of overall hits
system.cpu.icache.ReadReq_misses::cpu.inst          355                       # number of ReadReq misses
system.cpu.icache.ReadReq_misses::total           355                       # number of ReadReq misses
system.cpu.icache.demand_misses::cpu.inst          355                       # number of demand (read+write) misses
system.cpu.icache.demand_misses::total            355                       # number of demand (read+write) misses
system.cpu.icache.overall_misses::cpu.inst          355                       # number of overall misses
system.cpu.icache.overall_misses::total           355                       # number of overall misses
system.cpu.icache.ReadReq_miss_latency::cpu.inst     59343000                       # number of ReadReq miss cycles
system.cpu.icache.ReadReq_miss_latency::total     59343000                       # number of ReadReq miss cycles
system.cpu.icache.demand_miss_latency::cpu.inst     59343000                       # number of demand (read+write) miss cycles
system.cpu.icache.demand_miss_latency::total     59343000                       # number of demand (read+write) miss cycles
system.cpu.icache.overall_miss_latency::cpu.inst     59343000                       # number of overall miss cycles
system.cpu.icache.overall_miss_latency::total     59343000                       # number of overall miss cycles
system.cpu.icache.ReadReq_accesses::cpu.inst     59916921                       # number of ReadReq accesses(hits+misses)
system.cpu.icache.ReadReq_accesses::total     59916921                       # number of ReadReq accesses(hits+misses)
system.cpu.icache.demand_accesses::cpu.inst     59916921                       # number of demand (read+write) accesses
system.cpu.icache.demand_accesses::total     59916921                       # number of demand (read+write) accesses
system.cpu.icache.overall_accesses::cpu.inst     59916921                       # number of overall (read+write) accesses
system.cpu.icache.overall_accesses::total     59916921                       # number of overall (read+write) accesses
system.cpu.icache.ReadReq_miss_rate::cpu.inst     0.000006                       # miss rate for ReadReq accesses
system.cpu.icache.ReadReq_miss_rate::total     0.000006                       # miss rate for ReadReq accesses
system.cpu.icache.demand_miss_rate::cpu.inst     0.000006                       # miss rate for demand accesses
system.cpu.icache.demand_miss_rate::total     0.000006                       # miss rate for demand accesses
system.cpu.icache.overall_miss_rate::cpu.inst     0.000006                       # miss rate for overall accesses
system.cpu.icache.overall_miss_rate::total     0.000006                       # miss rate for overall accesses
system.cpu.icache.ReadReq_avg_miss_latency::cpu.inst 167163.380282                       # average ReadReq miss latency
system.cpu.icache.ReadReq_avg_miss_latency::total 167163.380282                       # average ReadReq miss latency
system.cpu.icache.demand_avg_miss_latency::cpu.inst 167163.380282                       # average overall miss latency
system.cpu.icache.demand_avg_miss_latency::total 167163.380282                       # average overall miss latency
system.cpu.icache.overall_avg_miss_latency::cpu.inst 167163.380282                       # average overall miss latency
system.cpu.icache.overall_avg_miss_latency::total 167163.380282                       # average overall miss latency
system.cpu.icache.blocked_cycles::no_mshrs            0                       # number of cycles access was blocked
system.cpu.icache.blocked_cycles::no_targets            0                       # number of cycles access was blocked
system.cpu.icache.blocked::no_mshrs                 0                       # number of cycles access was blocked
system.cpu.icache.blocked::no_targets               0                       # number of cycles access was blocked
system.cpu.icache.avg_blocked_cycles::no_mshrs          nan                       # average number of cycles each access was blocked
system.cpu.icache.avg_blocked_cycles::no_targets          nan                       # average number of cycles each access was blocked
system.cpu.icache.writebacks::writebacks           46                       # number of writebacks
system.cpu.icache.writebacks::total                46                       # number of writebacks
system.cpu.icache.ReadReq_mshr_misses::cpu.inst          355                       # number of ReadReq MSHR misses
system.cpu.icache.ReadReq_mshr_misses::total          355                       # number of ReadReq MSHR misses
system.cpu.icache.demand_mshr_misses::cpu.inst          355                       # number of demand (read+write) MSHR misses
system.cpu.icache.demand_mshr_misses::total          355                       # number of demand (read+write) MSHR misses
system.cpu.icache.overall_mshr_misses::cpu.inst          355                       # number of overall MSHR misses
system.cpu.icache.overall_mshr_misses::total          355                       # number of overall MSHR misses
system.cpu.icache.ReadReq_mshr_miss_latency::cpu.inst     58988000                       # number of ReadReq MSHR miss cycles
system.cpu.icache.ReadReq_mshr_miss_latency::total     58988000                       # number of ReadReq MSHR miss cycles
system.cpu.icache.demand_mshr_miss_latency::cpu.inst     58988000                       # number of demand (read+write) MSHR miss cycles
system.cpu.icache.demand_mshr_miss_latency::total     58988000                       # number of demand (read+write) MSHR miss cycles
system.cpu.icache.overall_mshr_miss_latency::cpu.inst     58988000                       # number of overall MSHR miss cycles
system.cpu.icache.overall_mshr_miss_latency::total     58988000                       # number of overall MSHR miss cycles
system.cpu.icache.ReadReq_mshr_miss_rate::cpu.inst     0.000006                       # mshr miss rate for ReadReq accesses
system.cpu.icache.ReadReq_mshr_miss_rate::total     0.000006                       # mshr miss rate for ReadReq accesses
system.cpu.icache.demand_mshr_miss_rate::cpu.inst     0.000006                       # mshr miss rate for demand accesses
system.cpu.icache.demand_mshr_miss_rate::total     0.000006                       # mshr miss rate for demand accesses
system.cpu.icache.overall_mshr_miss_rate::cpu.inst     0.000006                       # mshr miss rate for overall accesses
system.cpu.icache.overall_mshr_miss_rate::total     0.000006                       # mshr miss rate for overall accesses
system.cpu.icache.ReadReq_avg_mshr_miss_latency::cpu.inst 166163.380282                       # average ReadReq mshr miss latency
system.cpu.icache.ReadReq_avg_mshr_miss_latency::total 166163.380282                       # average ReadReq mshr miss latency
system.cpu.icache.demand_avg_mshr_miss_latency::cpu.inst 166163.380282                       # average overall mshr miss latency
system.cpu.icache.demand_avg_mshr_miss_latency::total 166163.380282                       # average overall mshr miss latency
system.cpu.icache.overall_avg_mshr_miss_latency::cpu.inst 166163.380282                       # average overall mshr miss latency
system.cpu.icache.overall_avg_mshr_miss_latency::total 166163.380282                       # average overall mshr miss latency
system.cpu.icache.replacements                     46                       # number of replacements
system.cpu.itb_walker_cache.tags.pwrStateResidencyTicks::UNDEFINED  88564765000                       # Cumulative time (in ticks) in various power states
system.cpu.itb_walker_cache.tags.tagsinuse            0                       # Cycle average of tags in use
system.cpu.itb_walker_cache.tags.total_refs            0                       # Total number of references to valid blocks.
system.cpu.itb_walker_cache.tags.sampled_refs            0                       # Sample count of references to valid blocks.
system.cpu.itb_walker_cache.tags.avg_refs          nan                       # Average number of references to valid blocks.
system.cpu.itb_walker_cache.tags.warmup_cycle            0                       # Cycle when the warmup percentage was hit.
system.cpu.itb_walker_cache.tags.tag_accesses            0                       # Number of tag accesses
system.cpu.itb_walker_cache.tags.data_accesses            0                       # Number of data accesses
system.cpu.itb_walker_cache.pwrStateResidencyTicks::UNDEFINED  88564765000                       # Cumulative time (in ticks) in various power states
system.cpu.itb_walker_cache.blocked_cycles::no_mshrs            0                       # number of cycles access was blocked
system.cpu.itb_walker_cache.blocked_cycles::no_targets            0                       # number of cycles access was blocked
system.cpu.itb_walker_cache.blocked::no_mshrs            0                       # number of cycles access was blocked
system.cpu.itb_walker_cache.blocked::no_targets            0                       # number of cycles access was blocked
system.cpu.itb_walker_cache.avg_blocked_cycles::no_mshrs          nan                       # average number of cycles each access was blocked
system.cpu.itb_walker_cache.avg_blocked_cycles::no_targets          nan                       # average number of cycles each access was blocked
system.cpu.itb_walker_cache.replacements            0                       # number of replacements
system.l2.tags.pwrStateResidencyTicks::UNDEFINED  88564765000                       # Cumulative time (in ticks) in various power states
system.l2.tags.tagsinuse                  2018.071134                       # Cycle average of tags in use
system.l2.tags.total_refs                      106206                       # Total number of references to valid blocks.
system.l2.tags.sampled_refs                     24188                       # Sample count of references to valid blocks.
system.l2.tags.avg_refs                      4.390855                       # Average number of references to valid blocks.
system.l2.tags.warmup_cycle                    434500                       # Cycle when the warmup percentage was hit.
system.l2.tags.occ_blocks::writebacks        1.425631                       # Average occupied blocks per requestor
system.l2.tags.occ_blocks::cpu.inst         11.509490                       # Average occupied blocks per requestor
system.l2.tags.occ_blocks::cpu.data       2005.136013                       # Average occupied blocks per requestor
system.l2.tags.occ_percent::writebacks       0.000696                       # Average percentage of cache occupancy
system.l2.tags.occ_percent::cpu.inst         0.005620                       # Average percentage of cache occupancy
system.l2.tags.occ_percent::cpu.data         0.979070                       # Average percentage of cache occupancy
system.l2.tags.occ_percent::total            0.985386                       # Average percentage of cache occupancy
system.l2.tags.occ_task_id_blocks::1024          2048                       # Occupied blocks per task id
system.l2.tags.age_task_id_blocks_1024::0           46                       # Occupied blocks per task id
system.l2.tags.age_task_id_blocks_1024::1           28                       # Occupied blocks per task id
system.l2.tags.age_task_id_blocks_1024::2           33                       # Occupied blocks per task id
system.l2.tags.age_task_id_blocks_1024::3           59                       # Occupied blocks per task id
system.l2.tags.age_task_id_blocks_1024::4         1882                       # Occupied blocks per task id
system.l2.tags.occ_task_id_percent::1024            1                       # Percentage of cache occupancy per task id
system.l2.tags.tag_accesses                    873836                       # Number of tag accesses
system.l2.tags.data_accesses                   873836                       # Number of data accesses
system.l2.pwrStateResidencyTicks::UNDEFINED  88564765000                       # Cumulative time (in ticks) in various power states
system.l2.WritebackDirty_hits::writebacks        43575                       # number of WritebackDirty hits
system.l2.WritebackDirty_hits::total            43575                       # number of WritebackDirty hits
system.l2.WritebackClean_hits::writebacks           46                       # number of WritebackClean hits
system.l2.WritebackClean_hits::total               46                       # number of WritebackClean hits
system.l2.UpgradeReq_hits::cpu.data             15463                       # number of UpgradeReq hits
system.l2.UpgradeReq_hits::total                15463                       # number of UpgradeReq hits
system.l2.ReadExReq_hits::cpu.data                259                       # number of ReadExReq hits
system.l2.ReadExReq_hits::total                   259                       # number of ReadExReq hits
system.l2.ReadSharedReq_hits::cpu.data          21359                       # number of ReadSharedReq hits
system.l2.ReadSharedReq_hits::total             21359                       # number of ReadSharedReq hits
system.l2.demand_hits::cpu.data                 21618                       # number of demand (read+write) hits
system.l2.demand_hits::total                    21618                       # number of demand (read+write) hits
system.l2.overall_hits::cpu.data                21618                       # number of overall hits
system.l2.overall_hits::total                   21618                       # number of overall hits
system.l2.ReadExReq_misses::cpu.data             6439                       # number of ReadExReq misses
system.l2.ReadExReq_misses::total                6439                       # number of ReadExReq misses
system.l2.ReadCleanReq_misses::cpu.inst           355                       # number of ReadCleanReq misses
system.l2.ReadCleanReq_misses::total              355                       # number of ReadCleanReq misses
system.l2.ReadSharedReq_misses::cpu.data        17370                       # number of ReadSharedReq misses
system.l2.ReadSharedReq_misses::total           17370                       # number of ReadSharedReq misses
system.l2.demand_misses::cpu.inst                 355                       # number of demand (read+write) misses
system.l2.demand_misses::cpu.data               23809                       # number of demand (read+write) misses
system.l2.demand_misses::total                  24164                       # number of demand (read+write) misses
system.l2.overall_misses::cpu.inst                355                       # number of overall misses
system.l2.overall_misses::cpu.data              23809                       # number of overall misses
system.l2.overall_misses::total                 24164                       # number of overall misses
system.l2.ReadExReq_miss_latency::cpu.data    597782500                       # number of ReadExReq miss cycles
system.l2.ReadExReq_miss_latency::total     597782500                       # number of ReadExReq miss cycles
system.l2.ReadCleanReq_miss_latency::cpu.inst     58453500                       # number of ReadCleanReq miss cycles
system.l2.ReadCleanReq_miss_latency::total     58453500                       # number of ReadCleanReq miss cycles
system.l2.ReadSharedReq_miss_latency::cpu.data    816092500                       # number of ReadSharedReq miss cycles
system.l2.ReadSharedReq_miss_latency::total    816092500                       # number of ReadSharedReq miss cycles
system.l2.demand_miss_latency::cpu.inst      58453500                       # number of demand (read+write) miss cycles
system.l2.demand_miss_latency::cpu.data    1413875000                       # number of demand (read+write) miss cycles
system.l2.demand_miss_latency::total       1472328500                       # number of demand (read+write) miss cycles
system.l2.overall_miss_latency::cpu.inst     58453500                       # number of overall miss cycles
system.l2.overall_miss_latency::cpu.data   1413875000                       # number of overall miss cycles
system.l2.overall_miss_latency::total      1472328500                       # number of overall miss cycles
system.l2.WritebackDirty_accesses::writebacks        43575                       # number of WritebackDirty accesses(hits+misses)
system.l2.WritebackDirty_accesses::total        43575                       # number of WritebackDirty accesses(hits+misses)
system.l2.WritebackClean_accesses::writebacks           46                       # number of WritebackClean accesses(hits+misses)
system.l2.WritebackClean_accesses::total           46                       # number of WritebackClean accesses(hits+misses)
system.l2.UpgradeReq_accesses::cpu.data         15463                       # number of UpgradeReq accesses(hits+misses)
system.l2.UpgradeReq_accesses::total            15463                       # number of UpgradeReq accesses(hits+misses)
system.l2.ReadExReq_accesses::cpu.data           6698                       # number of ReadExReq accesses(hits+misses)
system.l2.ReadExReq_accesses::total              6698                       # number of ReadExReq accesses(hits+misses)
system.l2.ReadCleanReq_accesses::cpu.inst          355                       # number of ReadCleanReq accesses(hits+misses)
system.l2.ReadCleanReq_accesses::total            355                       # number of ReadCleanReq accesses(hits+misses)
system.l2.ReadSharedReq_accesses::cpu.data        38729                       # number of ReadSharedReq accesses(hits+misses)
system.l2.ReadSharedReq_accesses::total         38729                       # number of ReadSharedReq accesses(hits+misses)
system.l2.demand_accesses::cpu.inst               355                       # number of demand (read+write) accesses
system.l2.demand_accesses::cpu.data             45427                       # number of demand (read+write) accesses
system.l2.demand_accesses::total                45782                       # number of demand (read+write) accesses
system.l2.overall_accesses::cpu.inst              355                       # number of overall (read+write) accesses
system.l2.overall_accesses::cpu.data            45427                       # number of overall (read+write) accesses
system.l2.overall_accesses::total               45782                       # number of overall (read+write) accesses
system.l2.ReadExReq_miss_rate::cpu.data      0.961332                       # miss rate for ReadExReq accesses
system.l2.ReadExReq_miss_rate::total         0.961332                       # miss rate for ReadExReq accesses
system.l2.ReadCleanReq_miss_rate::cpu.inst            1                       # miss rate for ReadCleanReq accesses
system.l2.ReadCleanReq_miss_rate::total             1                       # miss rate for ReadCleanReq accesses
system.l2.ReadSharedReq_miss_rate::cpu.data     0.448501                       # miss rate for ReadSharedReq accesses
system.l2.ReadSharedReq_miss_rate::total     0.448501                       # miss rate for ReadSharedReq accesses
system.l2.demand_miss_rate::cpu.inst                1                       # miss rate for demand accesses
system.l2.demand_miss_rate::cpu.data         0.524116                       # miss rate for demand accesses
system.l2.demand_miss_rate::total            0.527806                       # miss rate for demand accesses
system.l2.overall_miss_rate::cpu.inst               1                       # miss rate for overall accesses
system.l2.overall_miss_rate::cpu.data        0.524116                       # miss rate for overall accesses
system.l2.overall_miss_rate::total           0.527806                       # miss rate for overall accesses
system.l2.ReadExReq_avg_miss_latency::cpu.data 92837.785370                       # average ReadExReq miss latency
system.l2.ReadExReq_avg_miss_latency::total 92837.785370                       # average ReadExReq miss latency
system.l2.ReadCleanReq_avg_miss_latency::cpu.inst 164657.746479                       # average ReadCleanReq miss latency
system.l2.ReadCleanReq_avg_miss_latency::total 164657.746479                       # average ReadCleanReq miss latency
system.l2.ReadSharedReq_avg_miss_latency::cpu.data 46982.872769                       # average ReadSharedReq miss latency
system.l2.ReadSharedReq_avg_miss_latency::total 46982.872769                       # average ReadSharedReq miss latency
system.l2.demand_avg_miss_latency::cpu.inst 164657.746479                       # average overall miss latency
system.l2.demand_avg_miss_latency::cpu.data 59384.056449                       # average overall miss latency
system.l2.demand_avg_miss_latency::total 60930.661314                       # average overall miss latency
system.l2.overall_avg_miss_latency::cpu.inst 164657.746479                       # average overall miss latency
system.l2.overall_avg_miss_latency::cpu.data 59384.056449                       # average overall miss latency
system.l2.overall_avg_miss_latency::total 60930.661314                       # average overall miss latency
system.l2.blocked_cycles::no_mshrs                  0                       # number of cycles access was blocked
system.l2.blocked_cycles::no_targets                0                       # number of cycles access was blocked
system.l2.blocked::no_mshrs                         0                       # number of cycles access was blocked
system.l2.blocked::no_targets                       0                       # number of cycles access was blocked
system.l2.avg_blocked_cycles::no_mshrs            nan                       # average number of cycles each access was blocked
system.l2.avg_blocked_cycles::no_targets          nan                       # average number of cycles each access was blocked
system.l2.writebacks::writebacks                21728                       # number of writebacks
system.l2.writebacks::total                     21728                       # number of writebacks
system.l2.ReadExReq_mshr_misses::cpu.data         6439                       # number of ReadExReq MSHR misses
system.l2.ReadExReq_mshr_misses::total           6439                       # number of ReadExReq MSHR misses
system.l2.ReadCleanReq_mshr_misses::cpu.inst          355                       # number of ReadCleanReq MSHR misses
system.l2.ReadCleanReq_mshr_misses::total          355                       # number of ReadCleanReq MSHR misses
system.l2.ReadSharedReq_mshr_misses::cpu.data        17370                       # number of ReadSharedReq MSHR misses
system.l2.ReadSharedReq_mshr_misses::total        17370                       # number of ReadSharedReq MSHR misses
system.l2.demand_mshr_misses::cpu.inst            355                       # number of demand (read+write) MSHR misses
system.l2.demand_mshr_misses::cpu.data          23809                       # number of demand (read+write) MSHR misses
system.l2.demand_mshr_misses::total             24164                       # number of demand (read+write) MSHR misses
system.l2.overall_mshr_misses::cpu.inst           355                       # number of overall MSHR misses
system.l2.overall_mshr_misses::cpu.data         23809                       # number of overall MSHR misses
system.l2.overall_mshr_misses::total            24164                       # number of overall MSHR misses
system.l2.ReadExReq_mshr_miss_latency::cpu.data    533392500                       # number of ReadExReq MSHR miss cycles
system.l2.ReadExReq_mshr_miss_latency::total    533392500                       # number of ReadExReq MSHR miss cycles
system.l2.ReadCleanReq_mshr_miss_latency::cpu.inst     54903500                       # number of ReadCleanReq MSHR miss cycles
system.l2.ReadCleanReq_mshr_miss_latency::total     54903500                       # number of ReadCleanReq MSHR miss cycles
system.l2.ReadSharedReq_mshr_miss_latency::cpu.data    642392500                       # number of ReadSharedReq MSHR miss cycles
system.l2.ReadSharedReq_mshr_miss_latency::total    642392500                       # number of ReadSharedReq MSHR miss cycles
system.l2.demand_mshr_miss_latency::cpu.inst     54903500                       # number of demand (read+write) MSHR miss cycles
system.l2.demand_mshr_miss_latency::cpu.data   1175785000                       # number of demand (read+write) MSHR miss cycles
system.l2.demand_mshr_miss_latency::total   1230688500                       # number of demand (read+write) MSHR miss cycles
system.l2.overall_mshr_miss_latency::cpu.inst     54903500                       # number of overall MSHR miss cycles
system.l2.overall_mshr_miss_latency::cpu.data   1175785000                       # number of overall MSHR miss cycles
system.l2.overall_mshr_miss_latency::total   1230688500                       # number of overall MSHR miss cycles
system.l2.ReadExReq_mshr_miss_rate::cpu.data     0.961332                       # mshr miss rate for ReadExReq accesses
system.l2.ReadExReq_mshr_miss_rate::total     0.961332                       # mshr miss rate for ReadExReq accesses
system.l2.ReadCleanReq_mshr_miss_rate::cpu.inst            1                       # mshr miss rate for ReadCleanReq accesses
system.l2.ReadCleanReq_mshr_miss_rate::total            1                       # mshr miss rate for ReadCleanReq accesses
system.l2.ReadSharedReq_mshr_miss_rate::cpu.data     0.448501                       # mshr miss rate for ReadSharedReq accesses
system.l2.ReadSharedReq_mshr_miss_rate::total     0.448501                       # mshr miss rate for ReadSharedReq accesses
system.l2.demand_mshr_miss_rate::cpu.inst            1                       # mshr miss rate for demand accesses
system.l2.demand_mshr_miss_rate::cpu.data     0.524116                       # mshr miss rate for demand accesses
system.l2.demand_mshr_miss_rate::total       0.527806                       # mshr miss rate for demand accesses
system.l2.overall_mshr_miss_rate::cpu.inst            1                       # mshr miss rate for overall accesses
system.l2.overall_mshr_miss_rate::cpu.data     0.524116                       # mshr miss rate for overall accesses
system.l2.overall_mshr_miss_rate::total      0.527806                       # mshr miss rate for overall accesses
system.l2.ReadExReq_avg_mshr_miss_latency::cpu.data 82837.785370                       # average ReadExReq mshr miss latency
system.l2.ReadExReq_avg_mshr_miss_latency::total 82837.785370                       # average ReadExReq mshr miss latency
system.l2.ReadCleanReq_avg_mshr_miss_latency::cpu.inst 154657.746479                       # average ReadCleanReq mshr miss latency
system.l2.ReadCleanReq_avg_mshr_miss_latency::total 154657.746479                       # average ReadCleanReq mshr miss latency
system.l2.ReadSharedReq_avg_mshr_miss_latency::cpu.data 36982.872769                       # average ReadSharedReq mshr miss latency
system.l2.ReadSharedReq_avg_mshr_miss_latency::total 36982.872769                       # average ReadSharedReq mshr miss latency
system.l2.demand_avg_mshr_miss_latency::cpu.inst 154657.746479                       # average overall mshr miss latency
system.l2.demand_avg_mshr_miss_latency::cpu.data 49384.056449                       # average overall mshr miss latency
system.l2.demand_avg_mshr_miss_latency::total 50930.661314                       # average overall mshr miss latency
system.l2.overall_avg_mshr_miss_latency::cpu.inst 154657.746479                       # average overall mshr miss latency
system.l2.overall_avg_mshr_miss_latency::cpu.data 49384.056449                       # average overall mshr miss latency
system.l2.overall_avg_mshr_miss_latency::total 50930.661314                       # average overall mshr miss latency
system.l2.replacements                          22140                       # number of replacements
system.l3.tags.pwrStateResidencyTicks::UNDEFINED  88564765000                       # Cumulative time (in ticks) in various power states
system.l3.tags.tagsinuse                  5963.347274                       # Cycle average of tags in use
system.l3.tags.total_refs                       46006                       # Total number of references to valid blocks.
system.l3.tags.sampled_refs                      7520                       # Sample count of references to valid blocks.
system.l3.tags.avg_refs                      6.117819                       # Average number of references to valid blocks.
system.l3.tags.warmup_cycle                    418000                       # Cycle when the warmup percentage was hit.
system.l3.tags.occ_blocks::writebacks        4.672136                       # Average occupied blocks per requestor
system.l3.tags.occ_blocks::cpu.inst        215.186811                       # Average occupied blocks per requestor
system.l3.tags.occ_blocks::cpu.data       5743.488327                       # Average occupied blocks per requestor
system.l3.tags.occ_percent::writebacks       0.000570                       # Average percentage of cache occupancy
system.l3.tags.occ_percent::cpu.inst         0.026268                       # Average percentage of cache occupancy
system.l3.tags.occ_percent::cpu.data         0.701109                       # Average percentage of cache occupancy
system.l3.tags.occ_percent::total            0.727948                       # Average percentage of cache occupancy
system.l3.tags.occ_task_id_blocks::1024          6413                       # Occupied blocks per task id
system.l3.tags.age_task_id_blocks_1024::0           38                       # Occupied blocks per task id
system.l3.tags.age_task_id_blocks_1024::1           25                       # Occupied blocks per task id
system.l3.tags.age_task_id_blocks_1024::3            2                       # Occupied blocks per task id
system.l3.tags.age_task_id_blocks_1024::4         6348                       # Occupied blocks per task id
system.l3.tags.occ_task_id_percent::1024     0.782837                       # Percentage of cache occupancy per task id
system.l3.tags.tag_accesses                     99538                       # Number of tag accesses
system.l3.tags.data_accesses                    99538                       # Number of data accesses
system.l3.pwrStateResidencyTicks::UNDEFINED  88564765000                       # Cumulative time (in ticks) in various power states
system.l3.WritebackDirty_hits::writebacks        21728                       # number of WritebackDirty hits
system.l3.WritebackDirty_hits::total            21728                       # number of WritebackDirty hits
system.l3.ReadExReq_hits::cpu.data                 43                       # number of ReadExReq hits
system.l3.ReadExReq_hits::total                    43                       # number of ReadExReq hits
system.l3.ReadSharedReq_hits::cpu.data          16730                       # number of ReadSharedReq hits
system.l3.ReadSharedReq_hits::total             16730                       # number of ReadSharedReq hits
system.l3.demand_hits::cpu.data                 16773                       # number of demand (read+write) hits
system.l3.demand_hits::total                    16773                       # number of demand (read+write) hits
system.l3.overall_hits::cpu.data                16773                       # number of overall hits
system.l3.overall_hits::total                   16773                       # number of overall hits
system.l3.ReadExReq_misses::cpu.data             6396                       # number of ReadExReq misses
system.l3.ReadExReq_misses::total                6396                       # number of ReadExReq misses
system.l3.ReadSharedReq_misses::cpu.inst          355                       # number of ReadSharedReq misses
system.l3.ReadSharedReq_misses::cpu.data          640                       # number of ReadSharedReq misses
system.l3.ReadSharedReq_misses::total             995                       # number of ReadSharedReq misses
system.l3.demand_misses::cpu.inst                 355                       # number of demand (read+write) misses
system.l3.demand_misses::cpu.data                7036                       # number of demand (read+write) misses
system.l3.demand_misses::total                   7391                       # number of demand (read+write) misses
system.l3.overall_misses::cpu.inst                355                       # number of overall misses
system.l3.overall_misses::cpu.data               7036                       # number of overall misses
system.l3.overall_misses::total                  7391                       # number of overall misses
system.l3.ReadExReq_miss_latency::cpu.data    461854000                       # number of ReadExReq miss cycles
system.l3.ReadExReq_miss_latency::total     461854000                       # number of ReadExReq miss cycles
system.l3.ReadSharedReq_miss_latency::cpu.inst     50998500                       # number of ReadSharedReq miss cycles
system.l3.ReadSharedReq_miss_latency::cpu.data    175277500                       # number of ReadSharedReq miss cycles
system.l3.ReadSharedReq_miss_latency::total    226276000                       # number of ReadSharedReq miss cycles
system.l3.demand_miss_latency::cpu.inst      50998500                       # number of demand (read+write) miss cycles
system.l3.demand_miss_latency::cpu.data     637131500                       # number of demand (read+write) miss cycles
system.l3.demand_miss_latency::total        688130000                       # number of demand (read+write) miss cycles
system.l3.overall_miss_latency::cpu.inst     50998500                       # number of overall miss cycles
system.l3.overall_miss_latency::cpu.data    637131500                       # number of overall miss cycles
system.l3.overall_miss_latency::total       688130000                       # number of overall miss cycles
system.l3.WritebackDirty_accesses::writebacks        21728                       # number of WritebackDirty accesses(hits+misses)
system.l3.WritebackDirty_accesses::total        21728                       # number of WritebackDirty accesses(hits+misses)
system.l3.ReadExReq_accesses::cpu.data           6439                       # number of ReadExReq accesses(hits+misses)
system.l3.ReadExReq_accesses::total              6439                       # number of ReadExReq accesses(hits+misses)
system.l3.ReadSharedReq_accesses::cpu.inst          355                       # number of ReadSharedReq accesses(hits+misses)
system.l3.ReadSharedReq_accesses::cpu.data        17370                       # number of ReadSharedReq accesses(hits+misses)
system.l3.ReadSharedReq_accesses::total         17725                       # number of ReadSharedReq accesses(hits+misses)
system.l3.demand_accesses::cpu.inst               355                       # number of demand (read+write) accesses
system.l3.demand_accesses::cpu.data             23809                       # number of demand (read+write) accesses
system.l3.demand_accesses::total                24164                       # number of demand (read+write) accesses
system.l3.overall_accesses::cpu.inst              355                       # number of overall (read+write) accesses
system.l3.overall_accesses::cpu.data            23809                       # number of overall (read+write) accesses
system.l3.overall_accesses::total               24164                       # number of overall (read+write) accesses
system.l3.ReadExReq_miss_rate::cpu.data      0.993322                       # miss rate for ReadExReq accesses
system.l3.ReadExReq_miss_rate::total         0.993322                       # miss rate for ReadExReq accesses
system.l3.ReadSharedReq_miss_rate::cpu.inst            1                       # miss rate for ReadSharedReq accesses
system.l3.ReadSharedReq_miss_rate::cpu.data     0.036845                       # miss rate for ReadSharedReq accesses
system.l3.ReadSharedReq_miss_rate::total     0.056135                       # miss rate for ReadSharedReq accesses
system.l3.demand_miss_rate::cpu.inst                1                       # miss rate for demand accesses
system.l3.demand_miss_rate::cpu.data         0.295519                       # miss rate for demand accesses
system.l3.demand_miss_rate::total            0.305868                       # miss rate for demand accesses
system.l3.overall_miss_rate::cpu.inst               1                       # miss rate for overall accesses
system.l3.overall_miss_rate::cpu.data        0.295519                       # miss rate for overall accesses
system.l3.overall_miss_rate::total           0.305868                       # miss rate for overall accesses
system.l3.ReadExReq_avg_miss_latency::cpu.data 72209.818637                       # average ReadExReq miss latency
system.l3.ReadExReq_avg_miss_latency::total 72209.818637                       # average ReadExReq miss latency
system.l3.ReadSharedReq_avg_miss_latency::cpu.inst 143657.746479                       # average ReadSharedReq miss latency
system.l3.ReadSharedReq_avg_miss_latency::cpu.data 273871.093750                       # average ReadSharedReq miss latency
system.l3.ReadSharedReq_avg_miss_latency::total 227413.065327                       # average ReadSharedReq miss latency
system.l3.demand_avg_miss_latency::cpu.inst 143657.746479                       # average overall miss latency
system.l3.demand_avg_miss_latency::cpu.data 90553.084139                       # average overall miss latency
system.l3.demand_avg_miss_latency::total 93103.774861                       # average overall miss latency
system.l3.overall_avg_miss_latency::cpu.inst 143657.746479                       # average overall miss latency
system.l3.overall_avg_miss_latency::cpu.data 90553.084139                       # average overall miss latency
system.l3.overall_avg_miss_latency::total 93103.774861                       # average overall miss latency
system.l3.blocked_cycles::no_mshrs                  0                       # number of cycles access was blocked
system.l3.blocked_cycles::no_targets                0                       # number of cycles access was blocked
system.l3.blocked::no_mshrs                         0                       # number of cycles access was blocked
system.l3.blocked::no_targets                       0                       # number of cycles access was blocked
system.l3.avg_blocked_cycles::no_mshrs            nan                       # average number of cycles each access was blocked
system.l3.avg_blocked_cycles::no_targets          nan                       # average number of cycles each access was blocked
system.l3.writebacks::writebacks                  813                       # number of writebacks
system.l3.writebacks::total                       813                       # number of writebacks
system.l3.CleanEvict_mshr_misses::writebacks            3                       # number of CleanEvict MSHR misses
system.l3.CleanEvict_mshr_misses::total             3                       # number of CleanEvict MSHR misses
system.l3.ReadExReq_mshr_misses::cpu.data         6396                       # number of ReadExReq MSHR misses
system.l3.ReadExReq_mshr_misses::total           6396                       # number of ReadExReq MSHR misses
system.l3.ReadSharedReq_mshr_misses::cpu.inst          355                       # number of ReadSharedReq MSHR misses
system.l3.ReadSharedReq_mshr_misses::cpu.data          640                       # number of ReadSharedReq MSHR misses
system.l3.ReadSharedReq_mshr_misses::total          995                       # number of ReadSharedReq MSHR misses
system.l3.demand_mshr_misses::cpu.inst            355                       # number of demand (read+write) MSHR misses
system.l3.demand_mshr_misses::cpu.data           7036                       # number of demand (read+write) MSHR misses
system.l3.demand_mshr_misses::total              7391                       # number of demand (read+write) MSHR misses
system.l3.overall_mshr_misses::cpu.inst           355                       # number of overall MSHR misses
system.l3.overall_mshr_misses::cpu.data          7036                       # number of overall MSHR misses
system.l3.overall_mshr_misses::total             7391                       # number of overall MSHR misses
system.l3.ReadExReq_mshr_miss_latency::cpu.data    359518000                       # number of ReadExReq MSHR miss cycles
system.l3.ReadExReq_mshr_miss_latency::total    359518000                       # number of ReadExReq MSHR miss cycles
system.l3.ReadSharedReq_mshr_miss_latency::cpu.inst     45318500                       # number of ReadSharedReq MSHR miss cycles
system.l3.ReadSharedReq_mshr_miss_latency::cpu.data    165037500                       # number of ReadSharedReq MSHR miss cycles
system.l3.ReadSharedReq_mshr_miss_latency::total    210356000                       # number of ReadSharedReq MSHR miss cycles
system.l3.demand_mshr_miss_latency::cpu.inst     45318500                       # number of demand (read+write) MSHR miss cycles
system.l3.demand_mshr_miss_latency::cpu.data    524555500                       # number of demand (read+write) MSHR miss cycles
system.l3.demand_mshr_miss_latency::total    569874000                       # number of demand (read+write) MSHR miss cycles
system.l3.overall_mshr_miss_latency::cpu.inst     45318500                       # number of overall MSHR miss cycles
system.l3.overall_mshr_miss_latency::cpu.data    524555500                       # number of overall MSHR miss cycles
system.l3.overall_mshr_miss_latency::total    569874000                       # number of overall MSHR miss cycles
system.l3.CleanEvict_mshr_miss_rate::writebacks          inf                       # mshr miss rate for CleanEvict accesses
system.l3.CleanEvict_mshr_miss_rate::total          inf                       # mshr miss rate for CleanEvict accesses
system.l3.ReadExReq_mshr_miss_rate::cpu.data     0.993322                       # mshr miss rate for ReadExReq accesses
system.l3.ReadExReq_mshr_miss_rate::total     0.993322                       # mshr miss rate for ReadExReq accesses
system.l3.ReadSharedReq_mshr_miss_rate::cpu.inst            1                       # mshr miss rate for ReadSharedReq accesses
system.l3.ReadSharedReq_mshr_miss_rate::cpu.data     0.036845                       # mshr miss rate for ReadSharedReq accesses
system.l3.ReadSharedReq_mshr_miss_rate::total     0.056135                       # mshr miss rate for ReadSharedReq accesses
system.l3.demand_mshr_miss_rate::cpu.inst            1                       # mshr miss rate for demand accesses
system.l3.demand_mshr_miss_rate::cpu.data     0.295519                       # mshr miss rate for demand accesses
system.l3.demand_mshr_miss_rate::total       0.305868                       # mshr miss rate for demand accesses
system.l3.overall_mshr_miss_rate::cpu.inst            1                       # mshr miss rate for overall accesses
system.l3.overall_mshr_miss_rate::cpu.data     0.295519                       # mshr miss rate for overall accesses
system.l3.overall_mshr_miss_rate::total      0.305868                       # mshr miss rate for overall accesses
system.l3.ReadExReq_avg_mshr_miss_latency::cpu.data 56209.818637                       # average ReadExReq mshr miss latency
system.l3.ReadExReq_avg_mshr_miss_latency::total 56209.818637                       # average ReadExReq mshr miss latency
system.l3.ReadSharedReq_avg_mshr_miss_latency::cpu.inst 127657.746479                       # average ReadSharedReq mshr miss latency
system.l3.ReadSharedReq_avg_mshr_miss_latency::cpu.data 257871.093750                       # average ReadSharedReq mshr miss latency
system.l3.ReadSharedReq_avg_mshr_miss_latency::total 211413.065327                       # average ReadSharedReq mshr miss latency
system.l3.demand_avg_mshr_miss_latency::cpu.inst 127657.746479                       # average overall mshr miss latency
system.l3.demand_avg_mshr_miss_latency::cpu.data 74553.084139                       # average overall mshr miss latency
system.l3.demand_avg_mshr_miss_latency::total 77103.774861                       # average overall mshr miss latency
system.l3.overall_avg_mshr_miss_latency::cpu.inst 127657.746479                       # average overall mshr miss latency
system.l3.overall_avg_mshr_miss_latency::cpu.data 74553.084139                       # average overall mshr miss latency
system.l3.overall_avg_mshr_miss_latency::total 77103.774861                       # average overall mshr miss latency
system.l3.replacements                           1107                       # number of replacements
system.membus.snoop_filter.tot_requests          8371                       # Total number of requests made to the snoop filter.
system.membus.snoop_filter.hit_single_requests          980                       # Number of requests hitting in the snoop filter with a single holder of the requested data.
system.membus.snoop_filter.hit_multi_requests            0                       # Number of requests hitting in the snoop filter with multiple (>1) holders of the requested data.
system.membus.snoop_filter.tot_snoops               0                       # Total number of snoops made to the snoop filter.
system.membus.snoop_filter.hit_single_snoops            0                       # Number of snoops hitting in the snoop filter with a single holder of the requested data.
system.membus.snoop_filter.hit_multi_snoops            0                       # Number of snoops hitting in the snoop filter with multiple (>1) holders of the requested data.
system.membus.pwrStateResidencyTicks::UNDEFINED  88564765000                       # Cumulative time (in ticks) in various power states
system.membus.trans_dist::ReadResp                995                       # Transaction distribution
system.membus.trans_dist::WritebackDirty          813                       # Transaction distribution
system.membus.trans_dist::CleanEvict               65                       # Transaction distribution
system.membus.trans_dist::ReadExReq              6396                       # Transaction distribution
system.membus.trans_dist::ReadExResp             6396                       # Transaction distribution
system.membus.trans_dist::ReadSharedReq           995                       # Transaction distribution
system.membus.pkt_count_system.l3.mem_side::system.mem_ctrls.port        15660                       # Packet count per connected master and slave (bytes)
system.membus.pkt_count_system.l3.mem_side::total        15660                       # Packet count per connected master and slave (bytes)
system.membus.pkt_count::total                  15660                       # Packet count per connected master and slave (bytes)
system.membus.pkt_size_system.l3.mem_side::system.mem_ctrls.port       525056                       # Cumulative packet size per connected master and slave (bytes)
system.membus.pkt_size_system.l3.mem_side::total       525056                       # Cumulative packet size per connected master and slave (bytes)
system.membus.pkt_size::total                  525056                       # Cumulative packet size per connected master and slave (bytes)
system.membus.snoops                                0                       # Total snoops (count)
system.membus.snoopTraffic                          0                       # Total snoop traffic (bytes)
system.membus.snoop_fanout::samples              7391                       # Request fanout histogram
system.membus.snoop_fanout::mean                    0                       # Request fanout histogram
system.membus.snoop_fanout::stdev                   0                       # Request fanout histogram
system.membus.snoop_fanout::underflows              0      0.00%      0.00% # Request fanout histogram
system.membus.snoop_fanout::0                    7391    100.00%    100.00% # Request fanout histogram
system.membus.snoop_fanout::1                       0      0.00%    100.00% # Request fanout histogram
system.membus.snoop_fanout::overflows               0      0.00%    100.00% # Request fanout histogram
system.membus.snoop_fanout::min_value               0                       # Request fanout histogram
system.membus.snoop_fanout::max_value               0                       # Request fanout histogram
system.membus.snoop_fanout::total                7391                       # Request fanout histogram
system.membus.reqLayer2.occupancy            11626500                       # Layer occupancy (ticks)
system.membus.reqLayer2.utilization               0.0                       # Layer utilization (%)
system.membus.respLayer1.occupancy           36958500                       # Layer occupancy (ticks)
system.membus.respLayer1.utilization              0.0                       # Layer utilization (%)
system.tol2bus.snoop_filter.tot_requests       106206                       # Total number of requests made to the snoop filter.
system.tol2bus.snoop_filter.hit_single_requests        60424                       # Number of requests hitting in the snoop filter with a single holder of the requested data.
system.tol2bus.snoop_filter.hit_multi_requests            0                       # Number of requests hitting in the snoop filter with multiple (>1) holders of the requested data.
system.tol2bus.snoop_filter.tot_snoops            482                       # Total number of snoops made to the snoop filter.
system.tol2bus.snoop_filter.hit_single_snoops          482                       # Number of snoops hitting in the snoop filter with a single holder of the requested data.
system.tol2bus.snoop_filter.hit_multi_snoops            0                       # Number of snoops hitting in the snoop filter with multiple (>1) holders of the requested data.
system.tol2bus.pwrStateResidencyTicks::UNDEFINED  88564765000                       # Cumulative time (in ticks) in various power states
system.tol2bus.trans_dist::ReadResp             39084                       # Transaction distribution
system.tol2bus.trans_dist::WritebackDirty        65303                       # Transaction distribution
system.tol2bus.trans_dist::WritebackClean           46                       # Transaction distribution
system.tol2bus.trans_dist::CleanEvict            1984                       # Transaction distribution
system.tol2bus.trans_dist::UpgradeReq           15463                       # Transaction distribution
system.tol2bus.trans_dist::UpgradeResp          15463                       # Transaction distribution
system.tol2bus.trans_dist::ReadExReq             6698                       # Transaction distribution
system.tol2bus.trans_dist::ReadExResp            6698                       # Transaction distribution
system.tol2bus.trans_dist::ReadCleanReq           355                       # Transaction distribution
system.tol2bus.trans_dist::ReadSharedReq        38729                       # Transaction distribution
system.tol2bus.pkt_count_system.cpu.icache.mem_side::system.l2.cpu_side          756                       # Packet count per connected master and slave (bytes)
system.tol2bus.pkt_count_system.cpu.dcache.mem_side::system.l2.cpu_side       166695                       # Packet count per connected master and slave (bytes)
system.tol2bus.pkt_count::total                167451                       # Packet count per connected master and slave (bytes)
system.tol2bus.pkt_size_system.cpu.icache.mem_side::system.l2.cpu_side        25664                       # Cumulative packet size per connected master and slave (bytes)
system.tol2bus.pkt_size_system.cpu.dcache.mem_side::system.l2.cpu_side      5696128                       # Cumulative packet size per connected master and slave (bytes)
system.tol2bus.pkt_size::total                5721792                       # Cumulative packet size per connected master and slave (bytes)
system.tol2bus.snoops                           22372                       # Total snoops (count)
system.tol2bus.snoopTraffic                   1390592                       # Total snoop traffic (bytes)
system.tol2bus.snoop_fanout::samples            83617                       # Request fanout histogram
system.tol2bus.snoop_fanout::mean            0.005764                       # Request fanout histogram
system.tol2bus.snoop_fanout::stdev           0.075705                       # Request fanout histogram
system.tol2bus.snoop_fanout::underflows             0      0.00%      0.00% # Request fanout histogram
system.tol2bus.snoop_fanout::0                  83135     99.42%     99.42% # Request fanout histogram
system.tol2bus.snoop_fanout::1                    482      0.58%    100.00% # Request fanout histogram
system.tol2bus.snoop_fanout::2                      0      0.00%    100.00% # Request fanout histogram
system.tol2bus.snoop_fanout::3                      0      0.00%    100.00% # Request fanout histogram
system.tol2bus.snoop_fanout::4                      0      0.00%    100.00% # Request fanout histogram
system.tol2bus.snoop_fanout::overflows              0      0.00%    100.00% # Request fanout histogram
system.tol2bus.snoop_fanout::min_value              0                       # Request fanout histogram
system.tol2bus.snoop_fanout::max_value              1                       # Request fanout histogram
system.tol2bus.snoop_fanout::total              83617                       # Request fanout histogram
system.tol2bus.reqLayer0.occupancy           96724000                       # Layer occupancy (ticks)
system.tol2bus.reqLayer0.utilization              0.1                       # Layer utilization (%)
system.tol2bus.respLayer0.occupancy            532500                       # Layer occupancy (ticks)
system.tol2bus.respLayer0.utilization             0.0                       # Layer utilization (%)
system.tol2bus.respLayer1.occupancy          75872000                       # Layer occupancy (ticks)
system.tol2bus.respLayer1.utilization             0.1                       # Layer utilization (%)
system.tol3bus.snoop_filter.tot_requests        46009                       # Total number of requests made to the snoop filter.
system.tol3bus.snoop_filter.hit_single_requests        21845                       # Number of requests hitting in the snoop filter with a single holder of the requested data.
system.tol3bus.snoop_filter.hit_multi_requests            0                       # Number of requests hitting in the snoop filter with multiple (>1) holders of the requested data.
system.tol3bus.snoop_filter.tot_snoops            232                       # Total number of snoops made to the snoop filter.
system.tol3bus.snoop_filter.hit_single_snoops          232                       # Number of snoops hitting in the snoop filter with a single holder of the requested data.
system.tol3bus.snoop_filter.hit_multi_snoops            0                       # Number of snoops hitting in the snoop filter with multiple (>1) holders of the requested data.
system.tol3bus.pwrStateResidencyTicks::UNDEFINED  88564765000                       # Cumulative time (in ticks) in various power states
system.tol3bus.trans_dist::ReadResp             17725                       # Transaction distribution
system.tol3bus.trans_dist::WritebackDirty        22541                       # Transaction distribution
system.tol3bus.trans_dist::CleanEvict             411                       # Transaction distribution
system.tol3bus.trans_dist::ReadExReq             6439                       # Transaction distribution
system.tol3bus.trans_dist::ReadExResp            6439                       # Transaction distribution
system.tol3bus.trans_dist::ReadSharedReq        17725                       # Transaction distribution
system.tol3bus.pkt_count_system.l2.mem_side::system.l3.cpu_side        70173                       # Packet count per connected master and slave (bytes)
system.tol3bus.pkt_size_system.l2.mem_side::system.l3.cpu_side      2937088                       # Cumulative packet size per connected master and slave (bytes)
system.tol3bus.snoops                            1107                       # Total snoops (count)
system.tol3bus.snoopTraffic                     52032                       # Total snoop traffic (bytes)
system.tol3bus.snoop_fanout::samples            25271                       # Request fanout histogram
system.tol3bus.snoop_fanout::mean            0.009180                       # Request fanout histogram
system.tol3bus.snoop_fanout::stdev           0.095376                       # Request fanout histogram
system.tol3bus.snoop_fanout::underflows             0      0.00%      0.00% # Request fanout histogram
system.tol3bus.snoop_fanout::0                  25039     99.08%     99.08% # Request fanout histogram
system.tol3bus.snoop_fanout::1                    232      0.92%    100.00% # Request fanout histogram
system.tol3bus.snoop_fanout::overflows              0      0.00%    100.00% # Request fanout histogram
system.tol3bus.snoop_fanout::min_value              0                       # Request fanout histogram
system.tol3bus.snoop_fanout::max_value              1                       # Request fanout histogram
system.tol3bus.snoop_fanout::total              25271                       # Request fanout histogram
system.tol3bus.reqLayer0.occupancy           44732500                       # Layer occupancy (ticks)
system.tol3bus.reqLayer0.utilization              0.1                       # Layer utilization (%)
system.tol3bus.respLayer0.occupancy          36246000                       # Layer occupancy (ticks)
system.tol3bus.respLayer0.utilization             0.0                       # Layer utilization (%)

---------- End Simulation Statistics   ----------
